@<TRIPOS>MOLECULE
4fda_NAP_1_ligand
   73    77     1     0     0
SMALL
NO_CHARGES


@<TRIPOS>ATOM
     1 PA         -44.4420    21.1310    19.1190 P.3          1 NAP301   0.0000
     2 O1A        -44.9420    21.7410    17.9430 O.co2        1 NAP301   0.0000
     3 O2A        -45.5280    20.7610    20.0070 O.co2        1 NAP301  -1.0000
     4 O5B        -43.5200    19.8980    18.8230 O.3          1 NAP301   0.0000
     5 C5B        -42.3960    19.9980    17.9900 C.3          1 NAP301   0.0000
     6 C4B        -42.4440    19.0820    16.7820 C.3          1 NAP301   0.0000
     7 O4B        -41.2340    19.2400    16.0920 O.3          1 NAP301   0.0000
     8 C3B        -42.6040    17.6080    17.1840 C.3          1 NAP301   0.0000
     9 O3B        -43.4380    16.9760    16.2800 O.3          1 NAP301   0.0000
    10 C2B        -41.1890    17.1370    17.1170 C.3          1 NAP301   0.0000
    11 O2B        -41.0150    15.7350    17.0130 O.3          1 NAP301   0.0000
    12 C1B        -40.5950    18.0370    16.0110 C.3          1 NAP301   0.0000
    13 N9A        -39.1600    18.0680    16.2180 N.pl3        1 NAP301   0.0000
    14 C8A        -38.5440    18.4860    17.2790 C.2          1 NAP301   0.0000
    15 N7A        -37.2650    18.2790    17.1820 N.2          1 NAP301   0.0000
    16 C5A        -37.0010    17.7150    16.0450 C.ar         1 NAP301   0.0000
    17 C6A        -35.8240    17.2110    15.3690 C.ar         1 NAP301   0.0000
    18 N6A        -34.6160    17.3090    15.8880 N.pl3        1 NAP301   0.0000
    19 N1A        -36.0060    16.6710    14.1940 N.ar         1 NAP301   0.0000
    20 C2A        -37.2020    16.5570    13.6920 C.ar         1 NAP301   0.0000
    21 N3A        -38.3200    16.9750    14.2200 N.ar         1 NAP301   0.0000
    22 C4A        -38.2860    17.5430    15.4040 C.ar         1 NAP301   0.0000
    23 O3         -43.4630    22.1540    19.6910 O.3          1 NAP301   0.0000
    24 PN         -43.3160    22.6150    21.1580 P.3          1 NAP301   0.0000
    25 O1N        -42.1360    21.9540    21.5760 O.co2        1 NAP301   0.0000
    26 O2N        -44.4970    22.4060    21.9390 O.co2        1 NAP301  -1.0000
    27 O5D        -43.2250    24.2000    20.9190 O.3          1 NAP301   0.0000
    28 C5D        -44.2870    25.0880    21.2990 C.3          1 NAP301   0.0000
    29 C4D        -44.2420    26.6150    20.9840 C.3          1 NAP301   0.0000
    30 O4D        -44.8550    27.6210    21.8350 O.3          1 NAP301   0.0000
    31 C3D        -42.8900    27.1680    21.0780 C.3          1 NAP301   0.0000
    32 O3D        -42.1670    26.4820    20.1880 O.3          1 NAP301   0.0000
    33 C2D        -43.1000    28.5980    20.7230 C.3          1 NAP301   0.0000
    34 O2D        -43.8820    28.8450    19.5710 O.3          1 NAP301   0.0000
    35 C1D        -43.9950    28.8230    21.8680 C.3          1 NAP301   0.0000
    36 N1N        -42.8070    28.9290    22.7310 N.ar         1 NAP301   1.0000
    37 C2N        -41.4750    28.7540    22.3420 C.ar         1 NAP301   0.0000
    38 C3N        -40.3950    28.9020    23.2590 C.ar         1 NAP301   0.0000
    39 C7N        -38.8840    28.7630    23.1690 C.2          1 NAP301   0.0000
    40 O7N        -38.1230    28.7208    24.0628 O.2          1 NAP301   0.0000
    41 N7N        -38.3191    28.7530    21.9897 N.am         1 NAP301   0.0000
    42 C4N        -40.7030    29.2910    24.5170 C.ar         1 NAP301   0.0000
    43 C5N        -42.0130    29.5040    24.8220 C.ar         1 NAP301   0.0000
    44 C6N        -43.0420    29.3240    23.9430 C.ar         1 NAP301   0.0000
    45 P2B        -40.7800    14.7560    18.2110 P.3          1 NAP301   0.0000
    46 O1X        -42.0510    14.5680    18.7840 O.co2        1 NAP301   0.0000
    47 O2X        -40.1230    13.7330    17.5820 O.co2        1 NAP301  -1.0000
    48 O3X        -39.9620    15.4220    19.1610 O.co2        1 NAP301  -1.0000
    49 H5B1       -41.5844    19.7686    18.5272 H            1 NAP301   0.0000
    50 H5B2       -42.3262    20.9418    17.6671 H            1 NAP301   0.0000
    51 H4B        -43.2035    19.3506    16.1895 H            1 NAP301   0.0000
    52 H3B        -42.9620    17.5293    18.1144 H            1 NAP301   0.0000
    53 H5         -43.5441    16.0160    16.5391 H            1 NAP301   0.0000
    54 H2B        -40.7553    17.4151    17.9741 H            1 NAP301   0.0000
    55 H1B        -40.7864    17.6263    15.1195 H            1 NAP301   0.0000
    56 H8A        -38.9924    18.9103    18.0657 H            1 NAP301   0.0000
    57 H6A1       -33.8272    16.9485    15.3902 H            1 NAP301   0.0000
    58 H6A2       -34.4886    17.7438    16.7795 H            1 NAP301   0.0000
    59 H2A        -37.2715    16.0994    12.8055 H            1 NAP301   0.0000
    60 H5D1       -44.3751    25.0098    22.2920 H            1 NAP301   0.0000
    61 H5D2       -45.1151    24.7366    20.8622 H            1 NAP301   0.0000
    62 H4D        -44.5720    26.7518    20.0500 H            1 NAP301   0.0000
    63 H3D        -42.5194    27.0716    22.0018 H            1 NAP301   0.0000
    64 H16        -42.1833    25.5102    20.4233 H            1 NAP301   0.0000
    65 H2D        -42.2628    29.1437    20.7596 H            1 NAP301   0.0000
    66 H18        -43.4462    28.4237    18.7757 H            1 NAP301   0.0000
    67 H1D        -44.5106    29.6773    21.8021 H            1 NAP301   0.0000
    68 H2N        -41.2747    28.5178    21.3912 H            1 NAP301   0.0000
    69 H7N1       -37.3221    28.7621    21.9127 H            1 NAP301   0.0000
    70 H7N2       -38.8841    28.7362    21.1648 H            1 NAP301   0.0000
    71 H4N        -39.9882    29.4188    25.2046 H            1 NAP301   0.0000
    72 H5N        -42.2351    29.8114    25.7473 H            1 NAP301   0.0000
    73 H6N        -43.9822    29.4979    24.2358 H            1 NAP301   0.0000
@<TRIPOS>BOND
     1    1    2      ar
     2    1    3      ar
     3    1    4       1
     4    1   23       1
     5    4    5       1
     6    5    6       1
     7    6    7       1
     8    6    8       1
     9    7   12       1
    10    8    9       1
    11    8   10       1
    12   10   11       1
    13   10   12       1
    14   11   45       1
    15   12   13       1
    16   13   14       1
    17   13   22       1
    18   14   15       2
    19   15   16       1
    20   16   17      ar
    21   16   22      ar
    22   17   18       1
    23   17   19      ar
    24   19   20      ar
    25   20   21      ar
    26   21   22      ar
    27   23   24       1
    28   24   25      ar
    29   24   26      ar
    30   24   27       1
    31   27   28       1
    32   28   29       1
    33   29   30       1
    34   29   31       1
    35   30   35       1
    36   31   32       1
    37   31   33       1
    38   33   34       1
    39   33   35       1
    40   35   36       1
    41   36   37      ar
    42   36   44      ar
    43   37   38      ar
    44   38   39       1
    45   38   42      ar
    46   39   40       2
    47   39   41      am
    48   42   43      ar
    49   43   44      ar
    50   45   46      ar
    51   45   47      ar
    52   45   48      ar
    53   43   72       1
    54    5   49       1
    55    5   50       1
    56    6   51       1
    57    8   52       1
    58    9   53       1
    59   10   54       1
    60   12   55       1
    61   14   56       1
    62   18   57       1
    63   18   58       1
    64   20   59       1
    65   44   73       1
    66   28   60       1
    67   28   61       1
    68   29   62       1
    69   31   63       1
    70   32   64       1
    71   33   65       1
    72   34   66       1
    73   35   67       1
    74   37   68       1
    75   41   69       1
    76   41   70       1
    77   42   71       1
@<TRIPOS>SUBSTRUCTURE
     1 NAP301      1 GROUP             4 A     NAP     0 **** NAP A 301
