@<TRIPOS>MOLECULE
4mf1_29Y_1_ligand
   54    58     1     0     0
SMALL
NO_CHARGES


@<TRIPOS>ATOM
     1 C1          18.0640   -13.1060    -4.0680 C.3          1 29Y701   0.0000
     2 N2          16.9810   -13.2100    -5.0570 N.4          1 29Y701   1.0000
     3 C3          17.5190   -13.2600    -6.4260 C.3          1 29Y701   0.0000
     4 C4          16.0650   -14.3350    -4.7610 C.3          1 29Y701   0.0000
     5 C5          14.9120   -13.8650    -3.8990 C.ar         1 29Y701   0.0000
     6 C6          14.3670   -14.6700    -2.9070 C.ar         1 29Y701   0.0000
     7 C7          13.3140   -14.2080    -2.1280 C.ar         1 29Y701   0.0000
     8 C8          12.8160   -12.9290    -2.3370 C.ar         1 29Y701   0.0000
     9 C9          13.3580   -12.1400    -3.3300 C.ar         1 29Y701   0.0000
    10 C10         14.4020   -12.5990    -4.1050 C.ar         1 29Y701   0.0000
    11 C11         11.6590   -12.3720    -1.5450 C.3          1 29Y701   0.0000
    12 C13         11.5740   -10.8690    -1.2760 C.3          1 29Y701   0.0000
    13 C14         10.7230   -11.4860    -2.3890 C.3          1 29Y701   0.0000
    14 C16          9.2380   -11.5290    -2.1600 C.2          1 29Y701   0.0000
    15 O17          8.8350   -11.5510    -1.0200 O.2          1 29Y701   0.0000
    16 N18          8.3750   -11.5360    -3.2120 N.am         1 29Y701   0.0000
    17 C19          7.0000   -11.5410    -3.0110 C.2          1 29Y701   0.0000
    18 N20          6.0980   -11.4510    -3.9390 N.2          1 29Y701   0.0000
    19 C21          4.7960   -11.4390    -3.5530 C.ar         1 29Y701   0.0000
    20 C22          3.6290   -11.3510    -4.3490 C.ar         1 29Y701   0.0000
    21 C23          2.3940   -11.3410    -3.7750 C.ar         1 29Y701   0.0000
    22 C24          2.2470   -11.4420    -2.3910 C.ar         1 29Y701   0.0000
    23 C25          3.3710   -11.5370    -1.5860 C.ar         1 29Y701   0.0000
    24 C26          4.6340   -11.5340    -2.1690 C.ar         1 29Y701   0.0000
    25 S27          6.2260   -11.6260    -1.4350 S.3          1 29Y701   0.0000
    26 C28          0.9020   -11.4220    -1.7700 C.2          1 29Y701   0.0000
    27 C29         -0.2160   -10.8660    -2.3050 C.2          1 29Y701   0.0000
    28 N30         -1.2240   -11.0350    -1.4260 N.pl3        1 29Y701   0.0000
    29 N32         -0.7150   -11.7040    -0.3100 N.2          1 29Y701   0.0000
    30 C33          0.5540   -11.9310    -0.5080 C.2          1 29Y701   0.0000
    31 H1          17.6733   -13.0737    -3.1480 H            1 29Y701   0.0000
    32 H2          18.6652   -13.9012    -4.1472 H            1 29Y701   0.0000
    33 H3          18.5901   -12.2723    -4.2362 H            1 29Y701   0.0000
    34 H4          16.7644   -13.3305    -7.0783 H            1 29Y701   0.0000
    35 H5          18.0415   -12.4273    -6.6094 H            1 29Y701   0.0000
    36 H6          18.1167   -14.0562    -6.5204 H            1 29Y701   0.0000
    37 H7          16.5681   -15.0507    -4.2765 H            1 29Y701   0.0000
    38 H8          15.7063   -14.7023    -5.6192 H            1 29Y701   0.0000
    39 H9          14.7347   -15.5871    -2.7528 H            1 29Y701   0.0000
    40 H10         12.9170   -14.7931    -1.4209 H            1 29Y701   0.0000
    41 H11         12.9895   -11.2242    -3.4898 H            1 29Y701   0.0000
    42 H12         14.7901   -12.0140    -4.8171 H            1 29Y701   0.0000
    43 H13         11.2306   -12.9794    -0.8760 H            1 29Y701   0.0000
    44 H14         12.3452   -10.2763    -1.5081 H            1 29Y701   0.0000
    45 H15         11.1371   -10.5357    -0.4405 H            1 29Y701   0.0000
    46 H16         11.0193   -11.2988    -3.3256 H            1 29Y701   0.0000
    47 H17          8.7360   -11.5376    -4.1446 H            1 29Y701   0.0000
    48 H18          3.7122   -11.2955    -5.3440 H            1 29Y701   0.0000
    49 H19          1.5819   -11.2602    -4.3529 H            1 29Y701   0.0000
    50 H20          3.2748   -11.6072    -0.5931 H            1 29Y701   0.0000
    51 H21         -0.2800   -10.4118    -3.1936 H            1 29Y701   0.0000
    52 H22         -2.1696   -10.7345    -1.5507 H            1 29Y701   0.0000
    53 H23          1.1733   -12.3891     0.1297 H            1 29Y701   0.0000
    54 H24         16.4421   -12.3705    -4.9871 H            1 29Y701   0.0000
@<TRIPOS>BOND
     1    1    2       1
     2    2    3       1
     3    2    4       1
     4    4    5       1
     5    5    6      ar
     6    5   10      ar
     7    6    7      ar
     8    7    8      ar
     9    8    9      ar
    10    8   11       1
    11    9   10      ar
    12   11   12       1
    13   11   13       1
    14   12   13       1
    15   13   14       1
    16   14   15       2
    17   14   16      am
    18   16   17       1
    19   17   18       2
    20   17   25       1
    21   18   19       1
    22   19   20      ar
    23   19   24      ar
    24   20   21      ar
    25   21   22      ar
    26   22   23      ar
    27   22   26       1
    28   23   24      ar
    29   24   25       1
    30   26   27       2
    31   26   30       1
    32   27   28       1
    33   28   29       1
    34   29   30       2
    35    1   31       1
    36    1   32       1
    37    1   33       1
    38    3   34       1
    39    3   35       1
    40    3   36       1
    41    4   37       1
    42    4   38       1
    43    6   39       1
    44    7   40       1
    45    9   41       1
    46   10   42       1
    47   11   43       1
    48   12   44       1
    49   12   45       1
    50   13   46       1
    51   16   47       1
    52   20   48       1
    53   21   49       1
    54   23   50       1
    55   27   51       1
    56   28   52       1
    57   30   53       1
    58    2   54       1
@<TRIPOS>SUBSTRUCTURE
     1 29Y701      1 GROUP             4 A     29Y     0 **** 29Y A 701
