@<TRIPOS>MOLECULE
3wbb_NAP_3_ligand
   73    77     1     0     0
SMALL
NO_CHARGES


@<TRIPOS>ATOM
     1 PA          35.5850    80.9210    38.7560 P.3          1 NAP305   0.0000
     2 O1A         36.8580    80.8130    39.5040 O.co2        1 NAP305   0.0000
     3 O2A         34.3330    81.1450    39.5130 O.co2        1 NAP305  -1.0000
     4 O5B         35.7530    82.0690    37.6380 O.3          1 NAP305   0.0000
     5 C5B         34.6410    82.5710    36.8920 C.3          1 NAP305   0.0000
     6 C4B         34.8160    84.0730    36.6500 C.3          1 NAP305   0.0000
     7 O4B         33.8010    84.6310    35.7960 O.3          1 NAP305   0.0000
     8 C3B         34.7460    84.8370    37.9610 C.3          1 NAP305   0.0000
     9 O3B         36.0540    84.9180    38.5440 O.3          1 NAP305   0.0000
    10 C2B         34.3430    86.2080    37.4520 C.3          1 NAP305   0.0000
    11 O2B         35.4440    86.8900    36.8330 O.3          1 NAP305   0.0000
    12 C1B         33.2940    85.8230    36.4230 C.3          1 NAP305   0.0000
    13 N9A         32.0040    85.4930    37.0730 N.pl3        1 NAP305   0.0000
    14 C8A         31.8310    84.9870    38.2910 C.2          1 NAP305   0.0000
    15 N7A         30.5270    84.8180    38.4850 N.2          1 NAP305   0.0000
    16 C5A         29.8940    85.2180    37.3850 C.ar         1 NAP305   0.0000
    17 C6A         28.5960    85.3000    37.1030 C.ar         1 NAP305   0.0000
    18 N6A         27.7610    84.8980    38.0550 N.pl3        1 NAP305   0.0000
    19 N1A         28.1530    85.7940    35.9380 N.ar         1 NAP305   0.0000
    20 C2A         29.0880    86.2250    34.9910 C.ar         1 NAP305   0.0000
    21 N3A         30.4450    86.1230    35.3160 N.ar         1 NAP305   0.0000
    22 C4A         30.8080    85.6250    36.5060 C.ar         1 NAP305   0.0000
    23 O3          35.3840    79.5830    37.8820 O.3          1 NAP305   0.0000
    24 PN          36.6540    78.7610    37.3280 P.3          1 NAP305   0.0000
    25 O1N         37.6070    79.7040    36.7000 O.co2        1 NAP305   0.0000
    26 O2N         37.1440    77.8530    38.3880 O.co2        1 NAP305  -1.0000
    27 O5D         35.9850    77.8440    36.1880 O.3          1 NAP305   0.0000
    28 C5D         35.2320    78.4250    35.1210 C.3          1 NAP305   0.0000
    29 C4D         34.6700    77.2920    34.2610 C.3          1 NAP305   0.0000
    30 O4D         35.7270    76.4870    33.7210 O.3          1 NAP305   0.0000
    31 C3D         33.9540    76.2730    35.1270 C.3          1 NAP305   0.0000
    32 O3D         32.6510    76.7550    35.4870 O.3          1 NAP305   0.0000
    33 C2D         33.8160    75.1400    34.1250 C.3          1 NAP305   0.0000
    34 O2D         32.6550    75.3360    33.3050 O.3          1 NAP305   0.0000
    35 C1D         35.0730    75.2870    33.2780 C.3          1 NAP305   0.0000
    36 N1N         35.9860    74.1310    33.4260 N.ar         1 NAP305   1.0000
    37 C2N         35.9340    73.0910    32.4910 C.ar         1 NAP305   0.0000
    38 C3N         36.7410    71.9710    32.6510 C.ar         1 NAP305   0.0000
    39 C7N         36.7730    71.0030    31.6530 C.2          1 NAP305   0.0000
    40 O7N         37.5830    70.0780    31.6900 O.2          1 NAP305   0.0000
    41 N7N         35.8990    71.1840    30.6660 N.am         1 NAP305   0.0000
    42 C4N         37.5840    71.8790    33.7530 C.ar         1 NAP305   0.0000
    43 C5N         37.6300    72.9030    34.6930 C.ar         1 NAP305   0.0000
    44 C6N         36.8350    74.0330    34.5350 C.ar         1 NAP305   0.0000
    45 P2B         35.5270    88.4930    36.9650 P.3          1 NAP305   0.0000
    46 O1X         36.8000    88.8490    36.2970 O.co2        1 NAP305   0.0000
    47 O2X         35.5150    88.7270    38.4260 O.co2        1 NAP305  -1.0000
    48 O3X         34.3100    88.9510    36.2600 O.co2        1 NAP305  -1.0000
    49 H5B1        33.7978    82.4134    37.4060 H            1 NAP305   0.0000
    50 H5B2        34.5893    82.0967    36.0131 H            1 NAP305   0.0000
    51 H4B         35.7110    84.2303    36.2325 H            1 NAP305   0.0000
    52 H3B         34.0717    84.4514    38.5908 H            1 NAP305   0.0000
    53 H5          36.4000    83.9957    38.7160 H            1 NAP305   0.0000
    54 H2B         33.9434    86.7602    38.1837 H            1 NAP305   0.0000
    55 H1B         33.1743    86.5529    35.7500 H            1 NAP305   0.0000
    56 H8A         32.5552    84.7715    38.9460 H            1 NAP305   0.0000
    57 H6A1        26.7734    84.9355    37.9024 H            1 NAP305   0.0000
    58 H6A2        28.1201    84.5579    38.9241 H            1 NAP305   0.0000
    59 H2A         28.7955    86.5946    34.1090 H            1 NAP305   0.0000
    60 H5D1        35.8253    79.0086    34.5665 H            1 NAP305   0.0000
    61 H5D2        34.4818    78.9709    35.4941 H            1 NAP305   0.0000
    62 H4D         34.0727    77.6426    33.5397 H            1 NAP305   0.0000
    63 H3D         34.4941    76.0085    35.9259 H            1 NAP305   0.0000
    64 H16         32.6667    77.7537    35.5354 H            1 NAP305   0.0000
    65 H2D         33.7899    74.2518    34.5837 H            1 NAP305   0.0000
    66 H18         31.8392    75.3609    33.8828 H            1 NAP305   0.0000
    67 H1D         34.8155    75.3852    32.3167 H            1 NAP305   0.0000
    68 H2N         35.3159    73.1538    31.7074 H            1 NAP305   0.0000
    69 H7N1        35.8577    70.5320    29.9089 H            1 NAP305   0.0000
    70 H7N2        35.2835    71.9720    30.6814 H            1 NAP305   0.0000
    71 H4N         38.1612    71.0709    33.8705 H            1 NAP305   0.0000
    72 H5N         38.2363    72.8265    35.4845 H            1 NAP305   0.0000
    73 H6N         36.8695    74.7708    35.2091 H            1 NAP305   0.0000
@<TRIPOS>BOND
     1    1    2      ar
     2    1    3      ar
     3    1    4       1
     4    1   23       1
     5    4    5       1
     6    5    6       1
     7    6    7       1
     8    6    8       1
     9    7   12       1
    10    8    9       1
    11    8   10       1
    12   10   11       1
    13   10   12       1
    14   11   45       1
    15   12   13       1
    16   13   14       1
    17   13   22       1
    18   14   15       2
    19   15   16       1
    20   16   17      ar
    21   16   22      ar
    22   17   18       1
    23   17   19      ar
    24   19   20      ar
    25   20   21      ar
    26   21   22      ar
    27   23   24       1
    28   24   25      ar
    29   24   26      ar
    30   24   27       1
    31   27   28       1
    32   28   29       1
    33   29   30       1
    34   29   31       1
    35   30   35       1
    36   31   32       1
    37   31   33       1
    38   33   34       1
    39   33   35       1
    40   35   36       1
    41   36   37      ar
    42   36   44      ar
    43   37   38      ar
    44   38   39       1
    45   38   42      ar
    46   39   40       2
    47   39   41      am
    48   42   43      ar
    49   43   44      ar
    50   45   46      ar
    51   45   47      ar
    52   45   48      ar
    53   43   72       1
    54    5   49       1
    55    5   50       1
    56    6   51       1
    57    8   52       1
    58    9   53       1
    59   10   54       1
    60   12   55       1
    61   14   56       1
    62   18   57       1
    63   18   58       1
    64   20   59       1
    65   44   73       1
    66   28   60       1
    67   28   61       1
    68   29   62       1
    69   31   63       1
    70   32   64       1
    71   33   65       1
    72   34   66       1
    73   35   67       1
    74   37   68       1
    75   41   69       1
    76   41   70       1
    77   42   71       1
@<TRIPOS>SUBSTRUCTURE
     1 NAP305      1 GROUP             4 C     NAP     0 **** NAP C 305
