@<TRIPOS>MOLECULE
1njf_ADP_4_ligand
   39    41     1     0     0
SMALL
NO_CHARGES


@<TRIPOS>ATOM
     1 PB          36.1750    50.0100    18.5370 P.3          1 ADP302   0.0000
     2 O1B         35.0250    50.5180    19.3060 O.co2        1 ADP302   0.0000
     3 O2B         36.1170    48.5770    18.0270 O.co2        1 ADP302  -1.0000
     4 O3B         37.4550    50.2190    19.4250 O.co2        1 ADP302  -1.0000
     5 PA          36.2980    52.5110    17.1140 P.3          1 ADP302   0.0000
     6 O1A         35.2550    52.6640    16.0700 O.co2        1 ADP302   0.0000
     7 O2A         35.9650    53.2770    18.3610 O.co2        1 ADP302  -1.0000
     8 O3A         36.3920    50.9320    17.3470 O.3          1 ADP302   0.0000
     9 O5'         37.7870    52.7930    16.5050 O.3          1 ADP302   0.0000
    10 C5'         38.4630    54.0560    16.8710 C.3          1 ADP302   0.0000
    11 C4'         39.1150    54.7760    15.6610 C.3          1 ADP302   0.0000
    12 O4'         39.8020    53.7380    14.8550 O.3          1 ADP302   0.0000
    13 C3'         38.1090    55.4000    14.6710 C.3          1 ADP302   0.0000
    14 O3'         37.7030    56.7030    14.9760 O.3          1 ADP302   0.0000
    15 C2'         38.8040    55.2260    13.3290 C.3          1 ADP302   0.0000
    16 O2'         39.6400    56.3000    12.9100 O.3          1 ADP302   0.0000
    17 C1'         39.5850    53.9900    13.4530 C.3          1 ADP302   0.0000
    18 N9          38.8800    52.7610    12.8650 N.pl3        1 ADP302   0.0000
    19 C8          38.5930    51.6480    13.6290 C.2          1 ADP302   0.0000
    20 N7          37.9980    50.6570    13.0210 N.2          1 ADP302   0.0000
    21 C5          37.8510    51.1040    11.7590 C.ar         1 ADP302   0.0000
    22 C6          37.2790    50.5190    10.5470 C.ar         1 ADP302   0.0000
    23 N6          36.7190    49.2890    10.4880 N.pl3        1 ADP302   0.0000
    24 N1          37.3000    51.2830     9.3950 N.ar         1 ADP302   0.0000
    25 C2          37.8610    52.5510     9.3970 C.ar         1 ADP302   0.0000
    26 N3          38.4280    53.1920    10.4660 N.ar         1 ADP302   0.0000
    27 C4          38.4080    52.4210    11.6220 C.ar         1 ADP302   0.0000
    28 H5'1        39.1767    53.8515    17.5409 H            1 ADP302   0.0000
    29 H5'2        37.7882    54.6703    17.2799 H            1 ADP302   0.0000
    30 H4'         39.7690    55.4643    15.9749 H            1 ADP302   0.0000
    31 H3'         37.2926    54.8226    14.6656 H            1 ADP302   0.0000
    32 H5          38.5005    57.3062    14.9892 H            1 ADP302   0.0000
    33 H2'         38.1031    55.0842    12.6299 H            1 ADP302   0.0000
    34 H7          39.6280    57.0214    13.6024 H            1 ADP302   0.0000
    35 H1'         40.4680    54.1115    12.9997 H            1 ADP302   0.0000
    36 H9          38.8289    51.6026    14.5997 H            1 ADP302   0.0000
    37 H10         36.3460    48.9504     9.6242 H            1 ADP302   0.0000
    38 H11         36.6780    48.7184    11.3082 H            1 ADP302   0.0000
    39 H12         37.8505    53.0481     8.5293 H            1 ADP302   0.0000
@<TRIPOS>BOND
     1    1    2      ar
     2    1    3      ar
     3    1    4      ar
     4    1    8       1
     5    5    6      ar
     6    5    7      ar
     7    5    8       1
     8    5    9       1
     9    9   10       1
    10   10   11       1
    11   11   12       1
    12   11   13       1
    13   12   17       1
    14   13   14       1
    15   13   15       1
    16   15   16       1
    17   15   17       1
    18   17   18       1
    19   18   19       1
    20   18   27       1
    21   19   20       2
    22   20   21       1
    23   21   22      ar
    24   21   27      ar
    25   22   23       1
    26   22   24      ar
    27   24   25      ar
    28   25   26      ar
    29   26   27      ar
    30   25   39       1
    31   23   38       1
    32   23   37       1
    33   10   28       1
    34   10   29       1
    35   11   30       1
    36   13   31       1
    37   14   32       1
    38   15   33       1
    39   16   34       1
    40   17   35       1
    41   19   36       1
@<TRIPOS>SUBSTRUCTURE
     1 ADP302      1 GROUP             4 C     ADP     0 **** ADP C 302
