@<TRIPOS>MOLECULE
4mxe_ACO_2_ligand
   85    87     1     0     0
SMALL
NO_CHARGES


@<TRIPOS>ATOM
     1 N1A         51.4520    14.9590    31.6560 N.ar         1 ACO901   0.0000
     2 C2A         52.1960    14.9250    32.9380 C.ar         1 ACO901   0.0000
     3 N3A         53.4680    15.6780    33.0790 N.ar         1 ACO901   0.0000
     4 C4A         53.9560    16.4540    31.9490 C.ar         1 ACO901   0.0000
     5 C5A         53.2170    16.4960    30.6750 C.ar         1 ACO901   0.0000
     6 C6A         51.9430    15.7360    30.5390 C.ar         1 ACO901   0.0000
     7 N6A         51.2080    15.8000    29.3000 N.pl3        1 ACO901   0.0000
     8 N7A         53.9470    17.3390    29.7230 N.2          1 ACO901   0.0000
     9 C8A         55.1250    17.8250    30.4130 C.2          1 ACO901   0.0000
    10 N9A         55.1240    17.2630    31.7950 N.pl3        1 ACO901   0.0000
    11 C1B         56.1180    17.4650    32.8250 C.3          1 ACO901   0.0000
    12 C2B         56.8710    16.1400    32.9620 C.3          1 ACO901   0.0000
    13 O2B         57.3360    15.9970    34.2700 O.3          1 ACO901   0.0000
    14 C3B         58.0130    16.3260    31.9970 C.3          1 ACO901   0.0000
    15 O3B         59.1640    15.6260    32.3600 O.3          1 ACO901   0.0000
    16 P3B         59.2930    14.0310    32.0150 P.3          1 ACO901   0.0000
    17 O7A         60.6950    13.6520    32.1960 O.co2        1 ACO901   0.0000
    18 O8A         58.3050    13.2530    33.0770 O.co2        1 ACO901  -1.0000
    19 O9A         58.8260    13.7130    30.4660 O.co2        1 ACO901  -1.0000
    20 C4B         58.3630    17.7950    32.1470 C.3          1 ACO901   0.0000
    21 O4B         57.0890    18.4840    32.3740 O.3          1 ACO901   0.0000
    22 C5B         59.0710    18.2550    30.8680 C.3          1 ACO901   0.0000
    23 O5B         58.1650    18.1670    29.8400 O.3          1 ACO901   0.0000
    24 P1A         58.6230    18.5690    28.3190 P.3          1 ACO901   0.0000
    25 O1A         59.0500    17.4380    27.5120 O.co2        1 ACO901   0.0000
    26 O2A         59.8360    19.6530    28.4540 O.co2        1 ACO901  -1.0000
    27 O3A         57.2500    19.1760    27.6880 O.3          1 ACO901   0.0000
    28 P2A         56.7950    18.8190    26.1820 P.3          1 ACO901   0.0000
    29 O4A         57.9160    19.0480    25.3010 O.co2        1 ACO901   0.0000
    30 O5A         56.1670    17.2920    26.1080 O.co2        1 ACO901  -1.0000
    31 O6A         55.6450    19.9160    25.8070 O.3          1 ACO901   0.0000
    32 CBP         53.5560    20.9960    26.2570 C.3          1 ACO901   0.0000
    33 CCP         54.8390    20.3760    26.8690 C.3          1 ACO901   0.0000
    34 CDP         52.6520    21.4080    27.4430 C.3          1 ACO901   0.0000
    35 CEP         53.9770    22.2230    25.4000 C.3          1 ACO901   0.0000
    36 CAP         52.8520    19.9270    25.3690 C.3          1 ACO901   0.0000
    37 OAP         52.3490    18.9230    26.1980 O.3          1 ACO901   0.0000
    38 C9P         51.7330    20.5360    24.5180 C.2          1 ACO901   0.0000
    39 O9P         52.0300    20.9410    23.4400 O.2          1 ACO901   0.0000
    40 N8P         50.3420    20.1630    24.7730 N.am         1 ACO901   0.0000
    41 C7P         49.2740    20.6050    23.8490 C.3          1 ACO901   0.0000
    42 C6P         49.3030    22.1310    23.5800 C.3          1 ACO901   0.0000
    43 C5P         49.3440    22.8810    24.9190 C.2          1 ACO901   0.0000
    44 O5P         48.5420    22.6190    25.7570 O.2          1 ACO901   0.0000
    45 N4P         50.3960    23.8490    25.2030 N.am         1 ACO901   0.0000
    46 C3P         50.5510    24.4000    26.5550 C.3          1 ACO901   0.0000
    47 C2P         49.3240    25.2200    26.9990 C.3          1 ACO901   0.0000
    48 S1P         49.8140    26.5700    28.1190 S.3          1 ACO901   0.0000
    49 C           49.9100    28.1410    27.1130 C.2          1 ACO901   0.0000
    50 O           50.4770    29.1200    27.5280 O.2          1 ACO901   0.0000
    51 CH3         49.2370    28.2530    25.7190 C.3          1 ACO901   0.0000
    52 H2A         51.8411    14.3948    33.7080 H            1 ACO901   0.0000
    53 H6A1        51.5606    16.3416    28.5369 H            1 ACO901   0.0000
    54 H6A2        50.3457    15.3028    29.2039 H            1 ACO901   0.0000
    55 H8A         55.8197    18.4330    30.0286 H            1 ACO901   0.0000
    56 H1B         55.6926    17.7297    33.6904 H            1 ACO901   0.0000
    57 H2B         56.2948    15.3671    32.6962 H            1 ACO901   0.0000
    58 H7          57.8275    15.1304    34.3562 H            1 ACO901   0.0000
    59 H3B         57.7366    16.1114    31.0602 H            1 ACO901   0.0000
    60 H4B         58.9651    17.9233    32.9350 H            1 ACO901   0.0000
    61 H5B1        59.8569    17.6653    30.6819 H            1 ACO901   0.0000
    62 H5B2        59.3805    19.2004    30.9703 H            1 ACO901   0.0000
    63 HCP1        55.3329    21.0676    27.3959 H            1 ACO901   0.0000
    64 HCP2        54.5958    19.6122    27.4669 H            1 ACO901   0.0000
    65 HDP1        51.8082    21.8150    27.0933 H            1 ACO901   0.0000
    66 HDP2        52.4309    20.6005    27.9898 H            1 ACO901   0.0000
    67 HDP3        53.1326    22.0749    28.0125 H            1 ACO901   0.0000
    68 HEP1        53.1642    22.6406    24.9939 H            1 ACO901   0.0000
    69 HEP2        54.4406    22.8920    25.9809 H            1 ACO901   0.0000
    70 HEP3        54.5970    21.9255    24.6740 H            1 ACO901   0.0000
    71 HAP         53.5326    19.5233    24.7576 H            1 ACO901   0.0000
    72 H21         53.0419    18.2121    26.3186 H            1 ACO901   0.0000
    73 H8P         50.1123    19.6085    25.5729 H            1 ACO901   0.0000
    74 H7P1        48.3883    20.3681    24.2483 H            1 ACO901   0.0000
    75 H7P2        49.3863    20.1254    22.9787 H            1 ACO901   0.0000
    76 H6P1        48.4829    22.3966    23.0732 H            1 ACO901   0.0000
    77 H6P2        50.1152    22.3603    23.0436 H            1 ACO901   0.0000
    78 H4P         51.0152    24.1393    24.4734 H            1 ACO901   0.0000
    79 H3P1        51.3561    24.9930    26.5699 H            1 ACO901   0.0000
    80 H3P2        50.6817    23.6443    27.1968 H            1 ACO901   0.0000
    81 H2P1        48.6822    24.6177    27.4736 H            1 ACO901   0.0000
    82 H2P2        48.8809    25.6093    26.1915 H            1 ACO901   0.0000
    83 HH31        49.3996    29.1651    25.3427 H            1 ACO901   0.0000
    84 HH32        49.6249    27.5653    25.1054 H            1 ACO901   0.0000
    85 HH33        48.2529    28.1008    25.8108 H            1 ACO901   0.0000
@<TRIPOS>BOND
     1    1    2      ar
     2    1    6      ar
     3    2    3      ar
     4    3    4      ar
     5    4    5      ar
     6    4   10       1
     7    5    6      ar
     8    5    8       1
     9    6    7       1
    10    8    9       2
    11    9   10       1
    12   10   11       1
    13   11   12       1
    14   11   21       1
    15   12   13       1
    16   12   14       1
    17   14   15       1
    18   14   20       1
    19   15   16       1
    20   16   17      ar
    21   16   18      ar
    22   16   19      ar
    23   20   21       1
    24   20   22       1
    25   22   23       1
    26   23   24       1
    27   24   25      ar
    28   24   26      ar
    29   24   27       1
    30   27   28       1
    31   28   29      ar
    32   28   30      ar
    33   28   31       1
    34   31   33       1
    35   32   33       1
    36   32   34       1
    37   32   35       1
    38   32   36       1
    39   36   37       1
    40   36   38       1
    41   38   39       2
    42   38   40      am
    43   40   41       1
    44   41   42       1
    45   42   43       1
    46   43   44       2
    47   43   45      am
    48   45   46       1
    49   46   47       1
    50   47   48       1
    51   48   49       1
    52   49   50       2
    53   49   51       1
    54    2   52       1
    55    7   53       1
    56    7   54       1
    57    9   55       1
    58   11   56       1
    59   12   57       1
    60   13   58       1
    61   14   59       1
    62   51   85       1
    63   51   84       1
    64   20   60       1
    65   22   61       1
    66   22   62       1
    67   51   83       1
    68   47   82       1
    69   33   63       1
    70   33   64       1
    71   34   65       1
    72   34   66       1
    73   34   67       1
    74   35   68       1
    75   35   69       1
    76   35   70       1
    77   36   71       1
    78   37   72       1
    79   40   73       1
    80   41   74       1
    81   41   75       1
    82   42   76       1
    83   42   77       1
    84   45   78       1
    85   46   79       1
    86   46   80       1
    87   47   81       1
@<TRIPOS>SUBSTRUCTURE
     1 ACO901      1 GROUP             4 B     ACO     0 **** ACO B 901
