@<TRIPOS>MOLECULE
2bgl_NAJ_1_ligand
   70    74     1     0     0
SMALL
NO_CHARGES


@<TRIPOS>ATOM
     1 PA           2.9910    10.3200    16.7010 P.3          1 NAJ1300   0.0000
     2 O1A          2.9600     9.4340    17.8920 O.co2        1 NAJ1300   0.0000
     3 O2A          1.9330    10.1930    15.6680 O.co2        1 NAJ1300  -1.0000
     4 O5B          4.4190    10.2660    15.9180 O.3          1 NAJ1300   0.0000
     5 C5B          5.5910     9.6910    16.5370 C.3          1 NAJ1300   0.0000
     6 C4B          5.9650     8.2760    16.0660 C.3          1 NAJ1300   0.0000
     7 O4B          6.6940     7.6140    17.1180 O.3          1 NAJ1300   0.0000
     8 C3B          4.8040     7.3240    15.7500 C.3          1 NAJ1300   0.0000
     9 O3B          4.8850     6.8410    14.3980 O.3          1 NAJ1300   0.0000
    10 C2B          4.9630     6.1850    16.7450 C.3          1 NAJ1300   0.0000
    11 O2B          4.4450     4.9710    16.1920 O.3          1 NAJ1300   0.0000
    12 C1B          6.4640     6.2290    16.8660 C.3          1 NAJ1300   0.0000
    13 N9A          7.1370     5.3330    17.8240 N.pl3        1 NAJ1300   0.0000
    14 C8A          6.7910     5.0800    19.0980 C.2          1 NAJ1300   0.0000
    15 N7A          7.7270     4.3290    19.6930 N.2          1 NAJ1300   0.0000
    16 C5A          8.6430     4.1310    18.7490 C.ar         1 NAJ1300   0.0000
    17 C6A          9.8610     3.4900    18.9270 C.ar         1 NAJ1300   0.0000
    18 N6A         10.2110     2.9740    20.1010 N.pl3        1 NAJ1300   0.0000
    19 N1A         10.7070     3.4980    17.8740 N.ar         1 NAJ1300   0.0000
    20 C2A         10.3840     4.0880    16.7200 C.ar         1 NAJ1300   0.0000
    21 N3A          9.2090     4.7040    16.5540 N.ar         1 NAJ1300   0.0000
    22 C4A          8.3110     4.7500    17.5680 C.ar         1 NAJ1300   0.0000
    23 O3           2.9850    11.7970    17.3390 O.3          1 NAJ1300   0.0000
    24 PN           3.6500    13.2120    16.9860 P.3          1 NAJ1300   0.0000
    25 O1N          2.9630    14.1980    17.8410 O.co2        1 NAJ1300   0.0000
    26 O2N          3.6190    13.4240    15.5210 O.co2        1 NAJ1300  -1.0000
    27 O5D          5.1600    12.9670    17.4770 O.3          1 NAJ1300   0.0000
    28 C5D          5.4040    12.9700    18.8880 C.3          1 NAJ1300   0.0000
    29 C4D          6.5280    13.9230    19.2860 C.3          1 NAJ1300   0.0000
    30 O4D          6.1320    15.3150    19.2450 O.3          1 NAJ1300   0.0000
    31 C3D          6.9240    13.6340    20.7150 C.3          1 NAJ1300   0.0000
    32 O3D          8.3310    13.8210    20.9430 O.3          1 NAJ1300   0.0000
    33 C2D          6.0320    14.5820    21.4730 C.3          1 NAJ1300   0.0000
    34 O2D          6.6690    14.7810    22.7290 O.3          1 NAJ1300   0.0000
    35 C1D          6.0110    15.8290    20.5920 C.3          1 NAJ1300   0.0000
    36 N1N          4.8030    16.7070    20.7570 N.ar         1 NAJ1300   1.0000
    37 C2N          3.6470    16.4980    19.9750 C.ar         1 NAJ1300   0.0000
    38 C3N          2.4580    17.1820    20.2240 C.ar         1 NAJ1300   0.0000
    39 C7N          1.3180    17.0230    19.2200 C.2          1 NAJ1300   0.0000
    40 O7N          0.1734    17.3473    19.5322 O.2          1 NAJ1300   0.0000
    41 N7N          1.6499    16.5430    18.0224 N.am         1 NAJ1300   0.0000
    42 C4N          2.3920    18.0990    21.2760 C.ar         1 NAJ1300   0.0000
    43 C5N          3.5260    18.3610    22.0470 C.ar         1 NAJ1300   0.0000
    44 C6N          4.7250    17.6780    21.7870 C.ar         1 NAJ1300   0.0000
    45 H5B1         5.4313     9.6546    17.5235 H            1 NAJ1300   0.0000
    46 H5B2         6.3662    10.2934    16.3468 H            1 NAJ1300   0.0000
    47 H4B          6.5531     8.3479    15.2604 H            1 NAJ1300   0.0000
    48 H3B          3.9304     7.7880    15.8966 H            1 NAJ1300   0.0000
    49 H5           5.4233     5.9985    14.3767 H            1 NAJ1300   0.0000
    50 H2B          4.5233     6.4020    17.6165 H            1 NAJ1300   0.0000
    51 H7           5.1725     4.4909    15.7018 H            1 NAJ1300   0.0000
    52 H1B          6.8387     6.0278    15.9610 H            1 NAJ1300   0.0000
    53 H8A          5.9545     5.4058    19.5385 H            1 NAJ1300   0.0000
    54 H6A1        11.0946     2.5170    20.2029 H            1 NAJ1300   0.0000
    55 H6A2         9.5907     3.0428    20.8823 H            1 NAJ1300   0.0000
    56 H2A         11.0364     4.0685    15.9623 H            1 NAJ1300   0.0000
    57 H5D1         5.6531    12.0442    19.1721 H            1 NAJ1300   0.0000
    58 H5D2         4.5662    13.2487    19.3575 H            1 NAJ1300   0.0000
    59 H4D          7.3150    13.7813    18.6856 H            1 NAJ1300   0.0000
    60 H3D          6.6748    12.6927    20.9428 H            1 NAJ1300   0.0000
    61 H17          8.5008    14.7663    21.2216 H            1 NAJ1300   0.0000
    62 H2D          5.1137    14.2031    21.5877 H            1 NAJ1300   0.0000
    63 H19          5.9777    14.9631    23.4282 H            1 NAJ1300   0.0000
    64 H1D          6.8254    16.3723    20.7960 H            1 NAJ1300   0.0000
    65 H2N          3.6817    15.8413    19.2216 H            1 NAJ1300   0.0000
    66 H7N1         0.9521    16.4421    17.3133 H            1 NAJ1300   0.0000
    67 H7N2         2.5969    16.2836    17.8326 H            1 NAJ1300   0.0000
    68 H4N          1.5319    18.5680    21.4768 H            1 NAJ1300   0.0000
    69 H5N          3.4844    19.0351    22.7845 H            1 NAJ1300   0.0000
    70 H6N          5.5358    17.8795    22.3365 H            1 NAJ1300   0.0000
@<TRIPOS>BOND
     1    1    2      ar
     2    1    3      ar
     3    1    4       1
     4    1   23       1
     5    4    5       1
     6    5    6       1
     7    6    7       1
     8    6    8       1
     9    7   12       1
    10    8    9       1
    11    8   10       1
    12   10   11       1
    13   10   12       1
    14   12   13       1
    15   13   14       1
    16   13   22       1
    17   14   15       2
    18   15   16       1
    19   16   17      ar
    20   16   22      ar
    21   17   18       1
    22   17   19      ar
    23   19   20      ar
    24   20   21      ar
    25   21   22      ar
    26   23   24       1
    27   24   25      ar
    28   24   26      ar
    29   24   27       1
    30   27   28       1
    31   28   29       1
    32   29   30       1
    33   29   31       1
    34   30   35       1
    35   31   32       1
    36   31   33       1
    37   33   34       1
    38   33   35       1
    39   35   36       1
    40   36   37      ar
    41   36   44      ar
    42   37   38      ar
    43   38   39       1
    44   38   42      ar
    45   39   40       2
    46   39   41      am
    47   42   43      ar
    48   43   44      ar
    49   44   70       1
    50    5   45       1
    51    5   46       1
    52    6   47       1
    53    8   48       1
    54    9   49       1
    55   10   50       1
    56   11   51       1
    57   12   52       1
    58   14   53       1
    59   18   54       1
    60   18   55       1
    61   20   56       1
    62   43   69       1
    63   28   57       1
    64   28   58       1
    65   29   59       1
    66   31   60       1
    67   32   61       1
    68   33   62       1
    69   34   63       1
    70   35   64       1
    71   37   65       1
    72   41   66       1
    73   41   67       1
    74   42   68       1
@<TRIPOS>SUBSTRUCTURE
     1 NAJ1300     1 GROUP             4 A     NAJ     0 **** NAJ A1300
