@<TRIPOS>MOLECULE
5dep_UD1_1_ligand
   64    66     1     0     0
SMALL
NO_CHARGES


@<TRIPOS>ATOM
     1 C1'         26.8630    -4.5430    32.3070 C.3          1 UD1302   0.0000
     2 C2'         26.4740    -3.0970    32.0470 C.3          1 UD1302   0.0000
     3 C3'         25.2280    -2.9950    31.1520 C.3          1 UD1302   0.0000
     4 C4'         25.3570    -3.8980    29.9130 C.3          1 UD1302   0.0000
     5 C5'         25.8270    -5.3170    30.2600 C.3          1 UD1302   0.0000
     6 C6'         26.1130    -6.1780    29.0160 C.3          1 UD1302   0.0000
     7 C7'         27.2720    -1.9340    34.0460 C.2          1 UD1302   0.0000
     8 C8'         26.9020    -1.4590    35.4210 C.3          1 UD1302   0.0000
     9 N2'         26.2920    -2.4890    33.3540 N.am         1 UD1302   0.0000
    10 O1'         25.8440    -5.1080    33.1310 O.3          1 UD1302   0.0000
    11 O3'         25.0120    -1.6230    30.7690 O.3          1 UD1302   0.0000
    12 O4'         24.0900    -3.9990    29.2410 O.3          1 UD1302   0.0000
    13 O5'         27.0020    -5.2840    31.0970 O.3          1 UD1302   0.0000
    14 O6'         27.1220    -5.5790    28.1900 O.3          1 UD1302   0.0000
    15 O7'         28.4080    -1.8210    33.6250 O.2          1 UD1302   0.0000
    16 N1          24.5420   -10.0430    37.5530 N.pl3        1 UD1302   0.0000
    17 C2          24.5090   -10.6150    38.8610 C.2          1 UD1302   0.0000
    18 N3          25.1680   -10.0080    39.8700 N.pl3        1 UD1302   0.0000
    19 C4          25.8680    -8.8590    39.6780 C.2          1 UD1302   0.0000
    20 C5          25.9330    -8.2860    38.4100 C.2          1 UD1302   0.0000
    21 C6          25.2570    -8.9080    37.3600 C.2          1 UD1302   0.0000
    22 O2          23.8740   -11.6710    39.0850 O.2          1 UD1302   0.0000
    23 O4          26.4750    -8.2870    40.6120 O.2          1 UD1302   0.0000
    24 C1B         23.8320   -10.7180    36.4430 C.3          1 UD1302   0.0000
    25 C2B         23.1160    -9.8410    35.4150 C.3          1 UD1302   0.0000
    26 O2'         21.7650    -9.5690    35.7630 O.3          1 UD1302   0.0000
    27 C3B         23.1310   -10.7040    34.1910 C.3          1 UD1302   0.0000
    28 C4B         24.3680   -11.5920    34.3480 C.3          1 UD1302   0.0000
    29 O4B         24.7830   -11.5050    35.7090 O.3          1 UD1302   0.0000
    30 O3B         21.9130   -11.4590    34.1510 O.3          1 UD1302   0.0000
    31 C5B         25.5640   -11.1800    33.4930 C.3          1 UD1302   0.0000
    32 O5B         25.8300    -9.7720    33.5600 O.3          1 UD1302   0.0000
    33 PA          25.9990    -8.9410    32.2000 P.3          1 UD1302   0.0000
    34 O1A         24.8510    -9.3570    31.3060 O.co2        1 UD1302   0.0000
    35 O2A         27.3890    -9.0220    31.6390 O.co2        1 UD1302  -1.0000
    36 O3A         25.7360    -7.4070    32.5640 O.3          1 UD1302   0.0000
    37 PB          26.0720    -6.5220    33.8780 P.3          1 UD1302   0.0000
    38 O1B         27.5390    -6.6210    34.2560 O.co2        1 UD1302   0.0000
    39 O2B         24.9830    -6.6880    34.9180 O.co2        1 UD1302  -1.0000
    40 H1'         27.7312    -4.5628    32.8028 H            1 UD1302   0.0000
    41 H2'         27.2352    -2.6403    31.5865 H            1 UD1302   0.0000
    42 H3'         24.4365    -3.3007    31.6812 H            1 UD1302   0.0000
    43 H4'         26.0189    -3.4870    29.2861 H            1 UD1302   0.0000
    44 H5'         25.0963    -5.7622    30.7776 H            1 UD1302   0.0000
    45 H6'1        25.2711    -6.2733    28.4849 H            1 UD1302   0.0000
    46 H6'2        26.4259    -7.0813    29.3096 H            1 UD1302   0.0000
    47 H8'1        27.7045    -1.0571    35.8620 H            1 UD1302   0.0000
    48 H8'2        26.1795    -0.7710    35.3528 H            1 UD1302   0.0000
    49 H8'3        26.5755    -2.2325    35.9642 H            1 UD1302   0.0000
    50 H11         25.3746    -2.4905    33.7521 H            1 UD1302   0.0000
    51 H12         25.0473    -1.5456    29.7726 H            1 UD1302   0.0000
    52 H13         24.0149    -3.2706    28.5600 H            1 UD1302   0.0000
    53 H6'         27.6293    -6.2954    27.7111 H            1 UD1302   0.0000
    54 H15         25.1406   -10.4144    40.7833 H            1 UD1302   0.0000
    55 H16         26.4534    -7.4462    38.2555 H            1 UD1302   0.0000
    56 H17         25.3010    -8.5075    36.4448 H            1 UD1302   0.0000
    57 H1B         23.1579   -11.3403    36.8409 H            1 UD1302   0.0000
    58 H2B         23.6209    -8.9922    35.2581 H            1 UD1302   0.0000
    59 H20         21.3485    -8.9944    35.0584 H            1 UD1302   0.0000
    60 H3B         23.2138   -10.1383    33.3705 H            1 UD1302   0.0000
    61 H4B         24.1231   -12.5385    34.1379 H            1 UD1302   0.0000
    62 H23         21.2178   -10.9439    33.6497 H            1 UD1302   0.0000
    63 H5B1        25.3778   -11.4260    32.5418 H            1 UD1302   0.0000
    64 H5B2        26.3722   -11.6744    33.8131 H            1 UD1302   0.0000
@<TRIPOS>BOND
     1    1    2       1
     2    1   10       1
     3    1   13       1
     4    2    3       1
     5    2    9       1
     6    3    4       1
     7    3   11       1
     8    4    5       1
     9    4   12       1
    10    5    6       1
    11    5   13       1
    12    6   14       1
    13    7    8       1
    14    7    9      am
    15    7   15       2
    16   10   37       1
    17   16   17       1
    18   16   21       1
    19   16   24       1
    20   17   18       1
    21   17   22       2
    22   18   19       1
    23   19   20       1
    24   19   23       2
    25   20   21       2
    26   24   25       1
    27   24   29       1
    28   25   26       1
    29   25   27       1
    30   27   28       1
    31   27   30       1
    32   28   29       1
    33   28   31       1
    34   31   32       1
    35   32   33       1
    36   33   34      ar
    37   33   35      ar
    38   33   36       1
    39   36   37       1
    40   37   38      ar
    41   37   39      ar
    42    1   40       1
    43    2   41       1
    44    3   42       1
    45    4   43       1
    46    5   44       1
    47    6   45       1
    48    6   46       1
    49    8   47       1
    50    8   48       1
    51    8   49       1
    52    9   50       1
    53   11   51       1
    54   12   52       1
    55   14   53       1
    56   18   54       1
    57   20   55       1
    58   21   56       1
    59   24   57       1
    60   25   58       1
    61   26   59       1
    62   27   60       1
    63   28   61       1
    64   30   62       1
    65   31   63       1
    66   31   64       1
@<TRIPOS>SUBSTRUCTURE
     1 UD1302      1 GROUP             4 B     UD1     0 **** UD1 B 302
