@<TRIPOS>MOLECULE
1kp8_AGS_4_ligand
   43    45     1     0     0
SMALL
NO_CHARGES


@<TRIPOS>ATOM
     1 PG          55.8320   -36.7480     1.1490 P.3          1 AGS551   0.0000
     2 S1G         56.0350   -35.4450     1.8220 S.2          1 AGS551   0.0000
     3 O2G         56.7930   -37.1060     0.0490 O.co2        1 AGS551  -1.0000
     4 O3G         54.4130   -36.9820     0.8120 O.co2        1 AGS551  -1.0000
     5 PB          55.2160   -38.9790     2.8460 P.3          1 AGS551   0.0000
     6 O1B         54.5150   -39.6350     1.7060 O.co2        1 AGS551   0.0000
     7 O2B         55.9450   -39.8240     3.8180 O.co2        1 AGS551  -1.0000
     8 O3B         56.2050   -37.8630     2.2550 O.3          1 AGS551   0.0000
     9 PA          52.5800   -37.9470     3.6860 P.3          1 AGS551   0.0000
    10 O1A         52.2230   -36.7730     4.4820 O.co2        1 AGS551   0.0000
    11 O2A         52.0980   -38.0010     2.2840 O.co2        1 AGS551  -1.0000
    12 O3A         54.1720   -38.1720     3.7700 O.3          1 AGS551   0.0000
    13 O5'         51.9340   -39.1470     4.5100 O.3          1 AGS551   0.0000
    14 C5'         51.9760   -40.5020     4.1210 C.3          1 AGS551   0.0000
    15 C4'         51.7030   -41.3840     5.3030 C.3          1 AGS551   0.0000
    16 O4'         50.4190   -41.0770     5.9020 O.3          1 AGS551   0.0000
    17 C3'         51.6940   -42.8570     4.9310 C.3          1 AGS551   0.0000
    18 O3'         52.2970   -43.5710     5.9960 O.3          1 AGS551   0.0000
    19 C2'         50.1770   -43.0980     4.8350 C.3          1 AGS551   0.0000
    20 O2'         49.7520   -44.4570     5.0500 O.3          1 AGS551   0.0000
    21 C1'         49.6670   -42.2700     5.9750 C.3          1 AGS551   0.0000
    22 N9          48.2220   -42.0700     5.9630 N.pl3        1 AGS551   0.0000
    23 C8          47.3810   -41.5820     4.9840 C.2          1 AGS551   0.0000
    24 N7          46.1180   -41.5520     5.3320 N.2          1 AGS551   0.0000
    25 C5          46.1150   -42.0560     6.6300 C.ar         1 AGS551   0.0000
    26 C6          45.0930   -42.2940     7.5770 C.ar         1 AGS551   0.0000
    27 N6          43.8000   -42.0500     7.3550 N.pl3        1 AGS551   0.0000
    28 N1          45.4490   -42.8100     8.7950 N.ar         1 AGS551   0.0000
    29 C2          46.7450   -43.0720     9.0600 C.ar         1 AGS551   0.0000
    30 N3          47.8020   -42.8880     8.2370 N.ar         1 AGS551   0.0000
    31 C4          47.4010   -42.3690     7.0230 C.ar         1 AGS551   0.0000
    32 H5'1        52.8815   -40.7128     3.7527 H            1 AGS551   0.0000
    33 H5'2        51.2837   -40.6664     3.4183 H            1 AGS551   0.0000
    34 H4'         52.4177   -41.2321     5.9858 H            1 AGS551   0.0000
    35 H3'         52.1551   -43.0253     4.0598 H            1 AGS551   0.0000
    36 H5          52.3059   -44.5473     5.7799 H            1 AGS551   0.0000
    37 H2'         49.8221   -42.7535     3.9659 H            1 AGS551   0.0000
    38 H7          50.1763   -45.0510     4.3666 H            1 AGS551   0.0000
    39 H1'         49.9075   -42.7353     6.8268 H            1 AGS551   0.0000
    40 H9          47.7064   -41.2782     4.0885 H            1 AGS551   0.0000
    41 H10         43.1255   -42.2409     8.0682 H            1 AGS551   0.0000
    42 H11         43.5055   -41.6762     6.4755 H            1 AGS551   0.0000
    43 H12         46.9469   -43.4438     9.9661 H            1 AGS551   0.0000
@<TRIPOS>BOND
     1    1    2       2
     2    1    3      ar
     3    1    4      ar
     4    1    8       1
     5    5    6      ar
     6    5    7      ar
     7    5    8       1
     8    5   12       1
     9    9   10      ar
    10    9   11      ar
    11    9   12       1
    12    9   13       1
    13   13   14       1
    14   14   15       1
    15   15   16       1
    16   15   17       1
    17   16   21       1
    18   17   18       1
    19   17   19       1
    20   19   20       1
    21   19   21       1
    22   21   22       1
    23   22   23       1
    24   22   31       1
    25   23   24       2
    26   24   25       1
    27   25   26      ar
    28   25   31      ar
    29   26   27       1
    30   26   28      ar
    31   28   29      ar
    32   29   30      ar
    33   30   31      ar
    34   29   43       1
    35   27   42       1
    36   27   41       1
    37   23   40       1
    38   14   32       1
    39   14   33       1
    40   15   34       1
    41   17   35       1
    42   18   36       1
    43   19   37       1
    44   20   38       1
    45   21   39       1
@<TRIPOS>SUBSTRUCTURE
     1 AGS551      1 GROUP             4 D     AGS     0 **** AGS D 551
