@<TRIPOS>MOLECULE
1gzu_NMN_1_ligand
   32    33     1     0     0
SMALL
NO_CHARGES


@<TRIPOS>ATOM
     1 O3P        -19.2770    61.1830    37.1890 O.co2        1 NMN501   0.0000
     2 P          -17.9170    61.0230    37.7970 P.3          1 NMN501   0.0000
     3 O1P        -16.9730    60.9860    36.6200 O.co2        1 NMN501  -1.0000
     4 O2P        -17.7110    62.0560    38.9080 O.co2        1 NMN501  -1.0000
     5 O5R        -17.7670    59.5780    38.5520 O.3          1 NMN501   0.0000
     6 C5R        -16.4970    58.9180    38.5550 C.3          1 NMN501   0.0000
     7 C4R        -16.3990    57.8460    39.6060 C.2          1 NMN501   0.0000
     8 O4R        -15.1640    57.1990    40.0140 O.3          1 NMN501   0.0000
     9 C3R        -17.3780    57.4920    40.3940 C.2          1 NMN501   0.0000
    10 O3R        -18.4210    57.1200    39.9130 O.3          1 NMN501   0.0000
    11 C2R        -16.8610    56.9140    41.4870 C.2          1 NMN501   0.0000
    12 O2R        -17.5520    56.2910    42.2870 O.2          1 NMN501   0.0000
    13 C1R        -15.5130    56.8360    41.3690 C.3          1 NMN501   0.0000
    14 N1         -14.5780    56.9030    42.3920 N.ar         1 NMN501   1.0000
    15 C2         -14.0500    55.7680    42.8760 C.ar         1 NMN501   0.0000
    16 C3         -13.1080    55.7660    43.8980 C.ar         1 NMN501   0.0000
    17 C7         -12.5830    54.4630    44.4020 C.2          1 NMN501   0.0000
    18 O7         -12.9640    53.4190    43.9100 O.2          1 NMN501   0.0000
    19 N7         -11.6790    54.4730    45.3710 N.am         1 NMN501   0.0000
    20 C4         -12.6570    56.9600    44.4370 C.ar         1 NMN501   0.0000
    21 C5         -13.1900    58.1340    43.9150 C.ar         1 NMN501   0.0000
    22 C6         -14.1570    58.0810    42.8940 C.ar         1 NMN501   0.0000
    23 H5R1       -15.7839    59.5982    38.7251 H            1 NMN501   0.0000
    24 H5R2       -16.3520    58.5002    37.6581 H            1 NMN501   0.0000
    25 H3R        -19.1768    56.8468    40.5081 H            1 NMN501   0.0000
    26 H1R        -15.4671    55.8458    41.2372 H            1 NMN501   0.0000
    27 H5         -14.3442    54.8944    42.4883 H            1 NMN501   0.0000
    28 H6         -11.3141    53.6112    45.7233 H            1 NMN501   0.0000
    29 H7         -11.3618    55.3424    45.7499 H            1 NMN501   0.0000
    30 H8         -11.9772    56.9771    45.1702 H            1 NMN501   0.0000
    31 H9         -12.8849    59.0190    44.2666 H            1 NMN501   0.0000
    32 H10        -14.5387    58.9325    42.5345 H            1 NMN501   0.0000
@<TRIPOS>BOND
     1    1    2      ar
     2    2    3      ar
     3    2    4      ar
     4    2    5       1
     5    5    6       1
     6    6    7       1
     7    7    8       1
     8    7    9       2
     9    8   13       1
    10    9   10       1
    11    9   11       1
    12   11   12       2
    13   11   13       1
    14   13   14       1
    15   14   15      ar
    16   14   22      ar
    17   15   16      ar
    18   16   17       1
    19   16   20      ar
    20   17   18       2
    21   17   19      am
    22   20   21      ar
    23   21   22      ar
    24   22   32       1
    25   21   31       1
    26    6   23       1
    27    6   24       1
    28   10   25       1
    29   13   26       1
    30   15   27       1
    31   19   28       1
    32   19   29       1
    33   20   30       1
@<TRIPOS>SUBSTRUCTURE
     1 NMN501      1 GROUP             4 A     NMN     0 **** NMN A 501
