@<TRIPOS>MOLECULE
./coach420/1ogo/ligand.pdb
 23 24 0 0 0
SMALL
GASTEIGER

@<TRIPOS>ATOM
      1  C2         5.1620   12.0960    2.5050 C.3   1575  BGC1575     0.2434
      2  C3         6.1470   12.1980    1.3450 C.3   1575  BGC1575     0.2199
      3  C4         7.5520   12.4280    1.9010 C.3   1575  BGC1575     0.2143
      4  C5         7.8710   11.3730    2.9580 C.3   1575  BGC1575     0.1803
      5  C6         9.2450   11.5260    3.6010 C.3   1575  BGC1575     0.1770
      6  C1         5.6220   11.0770    3.5480 C.3   1575  BGC1575     0.3024
      7  O1         4.7600   11.1040    4.6710 O.3   1575  BGC1575    -0.1869
      8  O2         3.8880   11.7530    2.0070 O.3   1575  BGC1575    -0.2148
      9  O3         5.7450   13.2300    0.4530 O.3   1575  BGC1575    -0.2174
     10  O4         8.4970   12.3680    0.8500 O.3   1575  BGC1575    -0.2176
     11  O5         6.9150   11.3940    4.0040 O.3   1575  BGC1575    -0.3237
     12  O6         9.5110   10.2870    4.2200 O.3   1575  BGC1575    -0.3259
     13  C1        10.8850   10.1590    4.6380 C.3   1576  GLC1576     0.2695
     14  C2        11.1080    8.7080    5.0640 C.3   1576  GLC1576     0.2406
     15  C3        10.4430    8.4410    6.4190 C.3   1576  GLC1576     0.2198
     16  C4        10.8490    9.4900    7.4550 C.3   1576  GLC1576     0.2144
     17  C5        10.5830   10.8890    6.9050 C.3   1576  GLC1576     0.1835
     18  C6        11.0160   11.9800    7.8830 C.3   1576  GLC1576     0.2142
     19  O2        10.5360    7.8760    4.0740 O.3   1576  GLC1576    -0.2149
     20  O3        10.7900    7.1550    6.8960 O.3   1576  GLC1576    -0.2174
     21  O4        10.1190    9.2840    8.6570 O.3   1576  GLC1576    -0.2176
     22  O5        11.2550   11.0520    5.6680 O.3   1576  GLC1576    -0.3256
     23  O6        12.3520   11.7850    8.3020 O.3   1576  GLC1576    -0.2176
@<TRIPOS>BOND
     1     1     2    1
     2     1     8    1
     3     1     6    1
     4     2     9    1
     5     2     3    1
     6     3    10    1
     7     3     4    1
     8     4     5    1
     9     4    11    1
    10     5    12    1
    11     6    11    1
    12     6     7    1
    13    12    13    1
    14    13    14    1
    15    13    22    1
    16    14    19    1
    17    14    15    1
    18    15    20    1
    19    15    16    1
    20    16    17    1
    21    16    21    1
    22    17    22    1
    23    17    18    1
    24    18    23    1
