@<TRIPOS>MOLECULE
1rkx_NAD_2_ligand
   70    74     1     0     0
SMALL
NO_CHARGES


@<TRIPOS>ATOM
     1 PA           4.3950   -19.4220    -3.9990 P.3          1 NAD360   0.0000
     2 O1A          5.4660   -19.3190    -5.0090 O.co2        1 NAD360   0.0000
     3 O2A          4.5280   -20.4650    -2.9670 O.co2        1 NAD360  -1.0000
     4 O5B          2.9740   -19.6310    -4.7320 O.3          1 NAD360   0.0000
     5 C5B          2.7700   -19.0180    -6.0260 C.3          1 NAD360   0.0000
     6 C4B          1.6260   -19.6880    -6.7810 C.3          1 NAD360   0.0000
     7 O4B          1.6030   -18.9530    -8.0230 O.3          1 NAD360   0.0000
     8 C3B          1.9250   -21.1460    -7.1500 C.3          1 NAD360   0.0000
     9 O3B          0.8040   -21.9420    -6.7480 O.3          1 NAD360   0.0000
    10 C2B          2.1590   -21.0720    -8.6480 C.3          1 NAD360   0.0000
    11 O2B          1.8330   -22.2900    -9.3540 O.3          1 NAD360   0.0000
    12 C1B          1.3330   -19.8750    -9.0450 C.3          1 NAD360   0.0000
    13 N9A          1.7590   -19.3010   -10.3080 N.pl3        1 NAD360   0.0000
    14 C8A          2.8800   -18.5650   -10.5600 C.2          1 NAD360   0.0000
    15 N7A          2.9910   -18.1900   -11.8300 N.2          1 NAD360   0.0000
    16 C5A          1.8670   -18.7220   -12.4330 C.ar         1 NAD360   0.0000
    17 C6A          1.4170   -18.6730   -13.7670 C.ar         1 NAD360   0.0000
    18 N6A          2.0240   -18.0650   -14.7680 N.pl3        1 NAD360   0.0000
    19 N1A          0.2380   -19.3170   -14.0640 N.ar         1 NAD360   0.0000
    20 C2A         -0.4100   -19.9600   -13.0320 C.ar         1 NAD360   0.0000
    21 N3A         -0.0830   -20.0670   -11.7600 N.ar         1 NAD360   0.0000
    22 C4A          1.0890   -19.4140   -11.5170 C.ar         1 NAD360   0.0000
    23 O3           4.2430   -18.0270    -3.3420 O.3          1 NAD360   0.0000
    24 PN           3.2930   -17.4990    -2.1270 P.3          1 NAD360   0.0000
    25 O1N          4.2440   -17.1820    -1.0640 O.co2        1 NAD360   0.0000
    26 O2N          2.3410   -18.5800    -1.7560 O.co2        1 NAD360  -1.0000
    27 O5D          2.6620   -16.1720    -2.7210 O.3          1 NAD360   0.0000
    28 C5D          1.2210   -16.1340    -2.8450 C.3          1 NAD360   0.0000
    29 C4D          0.7870   -14.7720    -3.3570 C.3          1 NAD360   0.0000
    30 O4D          1.0770   -13.8420    -2.2670 O.3          1 NAD360   0.0000
    31 C3D          1.5100   -14.1790    -4.5650 C.3          1 NAD360   0.0000
    32 O3D          0.5820   -13.3420    -5.2850 O.3          1 NAD360   0.0000
    33 C2D          2.6070   -13.3500    -3.9150 C.3          1 NAD360   0.0000
    34 O2D          3.0830   -12.3290    -4.8080 O.3          1 NAD360   0.0000
    35 C1D          1.8870   -12.7850    -2.7300 C.3          1 NAD360   0.0000
    36 N1N          2.8140   -12.3390    -1.6880 N.ar         1 NAD360   1.0000
    37 C2N          3.4410   -13.2290    -0.8030 C.ar         1 NAD360   0.0000
    38 C3N          4.3410   -12.7370     0.2820 C.ar         1 NAD360   0.0000
    39 C7N          4.9260   -13.7450     1.1770 C.2          1 NAD360   0.0000
    40 O7N          5.6630   -13.3260     2.0880 O.2          1 NAD360   0.0000
    41 N7N          4.6970   -15.0700     1.0490 N.am         1 NAD360   0.0000
    42 C4N          4.6400   -11.2510     0.3670 C.ar         1 NAD360   0.0000
    43 C5N          3.9110   -10.4520    -0.6600 C.ar         1 NAD360   0.0000
    44 C6N          3.0930   -10.9400    -1.5750 C.ar         1 NAD360   0.0000
    45 H5B1         3.6092   -19.1033    -6.5631 H            1 NAD360   0.0000
    46 H5B2         2.5533   -18.0502    -5.8977 H            1 NAD360   0.0000
    47 H4B          0.7603   -19.6036    -6.2875 H            1 NAD360   0.0000
    48 H3B          2.7542   -21.4571    -6.6855 H            1 NAD360   0.0000
    49 H5           0.9755   -22.8998    -6.9787 H            1 NAD360   0.0000
    50 H2B          3.1230   -20.8601    -8.8087 H            1 NAD360   0.0000
    51 H7           2.6406   -22.8784    -9.3941 H            1 NAD360   0.0000
    52 H1B          0.3602   -20.1056    -9.0687 H            1 NAD360   0.0000
    53 H8A          3.5522   -18.3307    -9.8577 H            1 NAD360   0.0000
    54 H6A1         1.6228   -18.0872   -15.6837 H            1 NAD360   0.0000
    55 H6A2         2.8854   -17.5819   -14.6111 H            1 NAD360   0.0000
    56 H2A         -1.2617   -20.4170   -13.2884 H            1 NAD360   0.0000
    57 H5D1         0.8059   -16.3006    -1.9506 H            1 NAD360   0.0000
    58 H5D2         0.9239   -16.8406    -3.4872 H            1 NAD360   0.0000
    59 H4D         -0.1976   -14.7816    -3.5316 H            1 NAD360   0.0000
    60 H3D          1.8900   -14.8939    -5.1519 H            1 NAD360   0.0000
    61 H17         -0.0827   -12.9549    -4.6460 H            1 NAD360   0.0000
    62 H2D          3.3611   -13.9366    -3.6198 H            1 NAD360   0.0000
    63 H19          3.4513   -12.7544    -5.6347 H            1 NAD360   0.0000
    64 H1D          1.3109   -12.0203    -3.0186 H            1 NAD360   0.0000
    65 H2N          3.2821   -14.2114    -0.9008 H            1 NAD360   0.0000
    66 H7N1         5.1204   -15.7144     1.6858 H            1 NAD360   0.0000
    67 H7N2         4.1041   -15.4066     0.3175 H            1 NAD360   0.0000
    68 H4N          5.2606   -10.8500     1.0408 H            1 NAD360   0.0000
    69 H5N          4.0538    -9.4623    -0.6554 H            1 NAD360   0.0000
    70 H6N          2.6522   -10.3082    -2.2126 H            1 NAD360   0.0000
@<TRIPOS>BOND
     1    1    2      ar
     2    1    3      ar
     3    1    4       1
     4    1   23       1
     5    4    5       1
     6    5    6       1
     7    6    7       1
     8    6    8       1
     9    7   12       1
    10    8    9       1
    11    8   10       1
    12   10   11       1
    13   10   12       1
    14   12   13       1
    15   13   14       1
    16   13   22       1
    17   14   15       2
    18   15   16       1
    19   16   17      ar
    20   16   22      ar
    21   17   18       1
    22   17   19      ar
    23   19   20      ar
    24   20   21      ar
    25   21   22      ar
    26   23   24       1
    27   24   25      ar
    28   24   26      ar
    29   24   27       1
    30   27   28       1
    31   28   29       1
    32   29   30       1
    33   29   31       1
    34   30   35       1
    35   31   32       1
    36   31   33       1
    37   33   34       1
    38   33   35       1
    39   35   36       1
    40   36   37      ar
    41   36   44      ar
    42   37   38      ar
    43   38   39       1
    44   38   42      ar
    45   39   40       2
    46   39   41      am
    47   42   43      ar
    48   43   44      ar
    49   44   70       1
    50    5   45       1
    51    5   46       1
    52    6   47       1
    53    8   48       1
    54    9   49       1
    55   10   50       1
    56   11   51       1
    57   12   52       1
    58   14   53       1
    59   18   54       1
    60   18   55       1
    61   20   56       1
    62   43   69       1
    63   28   57       1
    64   28   58       1
    65   29   59       1
    66   31   60       1
    67   32   61       1
    68   33   62       1
    69   34   63       1
    70   35   64       1
    71   37   65       1
    72   41   66       1
    73   41   67       1
    74   42   68       1
@<TRIPOS>SUBSTRUCTURE
     1 NAD360      1 GROUP             4 B     NAD     0 **** NAD B 360
