@<TRIPOS>MOLECULE
4ktt_SAM_1_ligand
   50    52     1     0     0
SMALL
NO_CHARGES


@<TRIPOS>ATOM
     1 N           -5.7190   -11.8830   -84.3500 N.4          1 SAM405   1.0000
     2 CA          -4.4810   -11.2320   -83.9400 C.3          1 SAM405   0.0000
     3 C           -4.2910   -11.4100   -82.4510 C.2          1 SAM405   0.0000
     4 O           -3.4110   -10.7270   -81.8860 O.co2        1 SAM405   0.0000
     5 OXT         -5.0230   -12.2190   -81.8330 O.co2        1 SAM405  -1.0000
     6 CB          -4.5500    -9.7550   -84.3380 C.3          1 SAM405   0.0000
     7 CG          -5.3640    -8.9690   -83.3080 C.3          1 SAM405   0.0000
     8 SD          -6.2820    -7.7470   -83.9570 S.3          1 SAM405   1.0000
     9 CE          -7.5430    -8.3940   -84.8370 C.3          1 SAM405   0.0000
    10 C5'         -5.3400    -6.7630   -84.9170 C.3          1 SAM405   0.0000
    11 C4'         -5.8240    -5.3140   -84.8530 C.3          1 SAM405   0.0000
    12 O4'         -7.2620    -5.2370   -84.8820 O.3          1 SAM405   0.0000
    13 C3'         -5.3890    -4.6070   -83.5760 C.3          1 SAM405   0.0000
    14 O3'         -4.1060    -4.0030   -83.7080 O.3          1 SAM405   0.0000
    15 C2'         -6.5260    -3.6220   -83.3380 C.3          1 SAM405   0.0000
    16 O2'         -6.3060    -2.3950   -84.0360 O.3          1 SAM405   0.0000
    17 C1'         -7.7550    -4.3200   -83.9060 C.3          1 SAM405   0.0000
    18 N9          -8.5010    -5.0130   -82.8250 N.pl3        1 SAM405   0.0000
    19 C8          -7.9840    -5.4960   -81.6680 C.2          1 SAM405   0.0000
    20 N7          -8.9380    -6.0510   -80.8930 N.2          1 SAM405   0.0000
    21 C5         -10.1000    -5.9290   -81.5420 C.ar         1 SAM405   0.0000
    22 C6         -11.5010    -6.3070   -81.2580 C.ar         1 SAM405   0.0000
    23 N6         -11.8170    -6.9450   -80.0940 N.pl3        1 SAM405   0.0000
    24 N1         -12.4250    -5.9950   -82.1950 N.ar         1 SAM405   0.0000
    25 C2         -12.1100    -5.3700   -83.3410 C.ar         1 SAM405   0.0000
    26 N3         -10.8550    -5.0080   -83.6550 N.ar         1 SAM405   0.0000
    27 C4          -9.8180    -5.2520   -82.8140 C.ar         1 SAM405   0.0000
    28 H1          -6.4748   -11.2312   -84.2877 H            1 SAM405   0.0000
    29 H2          -5.6311   -12.2023   -85.2936 H            1 SAM405   0.0000
    30 HA          -3.7149   -11.6614   -84.4183 H            1 SAM405   0.0000
    31 HB1         -4.9853    -9.6743   -85.2346 H            1 SAM405   0.0000
    32 HB2         -3.6236    -9.3810   -84.3823 H            1 SAM405   0.0000
    33 HG1         -4.7300    -8.5680   -82.6468 H            1 SAM405   0.0000
    34 HG2         -5.9758    -9.6061   -82.8391 H            1 SAM405   0.0000
    35 HE1         -8.0924    -7.6543   -85.2255 H            1 SAM405   0.0000
    36 HE2         -7.1778    -8.9611   -85.5753 H            1 SAM405   0.0000
    37 HE3         -8.1146    -8.9545   -84.2377 H            1 SAM405   0.0000
    38 H5'1        -5.3899    -7.0835   -85.8629 H            1 SAM405   0.0000
    39 H5'2        -4.3926    -6.8061   -84.6000 H            1 SAM405   0.0000
    40 H4'         -5.4578    -4.8159   -85.6390 H            1 SAM405   0.0000
    41 H3'         -5.3651    -5.2683   -82.8263 H            1 SAM405   0.0000
    42 H15         -3.4272    -4.7056   -83.9215 H            1 SAM405   0.0000
    43 H2'         -6.6418    -3.4516   -82.3595 H            1 SAM405   0.0000
    44 H17         -6.2663    -1.6410   -83.3803 H            1 SAM405   0.0000
    45 H1'         -8.3496    -3.6476   -84.3468 H            1 SAM405   0.0000
    46 H19         -7.0164    -5.4468   -81.4205 H            1 SAM405   0.0000
    47 H20        -12.7654    -7.1994   -79.9048 H            1 SAM405   0.0000
    48 H21        -11.1002    -7.1582   -79.4301 H            1 SAM405   0.0000
    49 H22        -12.8426    -5.1648   -83.9899 H            1 SAM405   0.0000
    50 H23         -5.9005   -12.6621   -83.7500 H            1 SAM405   0.0000
@<TRIPOS>BOND
     1    1    2       1
     2    2    3       1
     3    2    6       1
     4    3    4      ar
     5    3    5      ar
     6    6    7       1
     7    7    8       1
     8    8    9       1
     9    8   10       1
    10   10   11       1
    11   11   12       1
    12   11   13       1
    13   12   17       1
    14   13   14       1
    15   13   15       1
    16   15   16       1
    17   15   17       1
    18   17   18       1
    19   18   19       1
    20   18   27       1
    21   19   20       2
    22   20   21       1
    23   21   22      ar
    24   21   27      ar
    25   22   23       1
    26   22   24      ar
    27   24   25      ar
    28   25   26      ar
    29   26   27      ar
    30    1   28       1
    31    1   29       1
    32    2   30       1
    33    1   50       1
    34    6   31       1
    35    6   32       1
    36    7   33       1
    37    7   34       1
    38    9   35       1
    39    9   36       1
    40    9   37       1
    41   10   38       1
    42   10   39       1
    43   11   40       1
    44   13   41       1
    45   14   42       1
    46   15   43       1
    47   16   44       1
    48   17   45       1
    49   19   46       1
    50   23   47       1
    51   23   48       1
    52   25   49       1
@<TRIPOS>SUBSTRUCTURE
     1 SAM405      1 GROUP             4 A     SAM     0 **** SAM A 405
