@<TRIPOS>MOLECULE
./coach420/2oec/ligand.pdb
 16 17 0 0 0
SMALL
GASTEIGER

@<TRIPOS>ATOM
      1  K          2.6820   27.9070    4.5760 K     503  K503        0.0000
      2  C3'        8.9460   27.0740   -2.1910 C.3     2  ANU2        0.0000
      3  C2'        9.4290   26.5620   -3.5280 C.3     2  ANU2        0.0000
      4  O2        10.1050   25.3080   -3.3780 O.3     2  ANU2        0.0000
      5  C2        11.3940   25.4190   -3.8190 C.ar    2  ANU2        0.0000
      6  N3        12.3080   24.4270   -3.9070 N.ar    2  ANU2        0.0000
      7  C4        13.5400   24.7420   -4.3790 C.ar    2  ANU2        0.0000
      8  O4        14.4190   23.8590   -4.4810 O.2     2  ANU2        0.0000
      9  C5        13.8350   26.0550   -4.7560 C.ar    2  ANU2        0.0000
     10  C6        12.8580   27.0390   -4.6430 C.ar    2  ANU2        0.0000
     11  N1        11.6620   26.6680   -4.1750 N.ar    2  ANU2        0.0000
     12  C1'       10.5090   27.5410   -3.9790 C.3     2  ANU2        0.0000
     13  O4'       10.7660   28.4280   -2.8870 O.3     2  ANU2        0.0000
     14  C4'       10.0060   28.0560   -1.7300 C.3     2  ANU2        0.0000
     15  C5'       10.8950   27.4220   -0.6610 C.3     2  ANU2        0.0000
     16  O5'       12.2120   27.9780   -0.7350 O.3     2  ANU2        0.0000
@<TRIPOS>BOND
     1     2     3    1
     2     2    14    1
     3     3    12    1
     4     3     4    1
     5     4     5    1
     6     5    11   ar
     7     5     6   ar
     8     6     7   ar
     9     7     9   ar
    10     7     8    2
    11     9    10   ar
    12    10    11   ar
    13    11    12    1
    14    12    13    1
    15    13    14    1
    16    14    15    1
    17    15    16    1
