@<TRIPOS>MOLECULE
3ely_SAH_1_ligand
   46    48     1     0     0
SMALL
NO_CHARGES


@<TRIPOS>ATOM
     1 N          -23.4170    -2.8500     9.0710 N.4          1 SAH887   1.0000
     2 CA         -23.8900    -1.4740     8.7690 C.3          1 SAH887   0.0000
     3 CB         -23.9500    -0.6830    10.0710 C.3          1 SAH887   0.0000
     4 CG         -25.3780    -0.7710    10.5970 C.3          1 SAH887   0.0000
     5 SD         -25.5540     0.2480    12.0110 S.3          1 SAH887   0.0000
     6 C          -23.0290    -0.7680     7.7550 C.2          1 SAH887   0.0000
     7 O          -21.9590    -1.2570     7.3760 O.co2        1 SAH887   0.0000
     8 OXT        -23.3770     0.3180     7.2760 O.co2        1 SAH887  -1.0000
     9 C5'        -26.9350    -0.4720    12.8430 C.3          1 SAH887   0.0000
    10 C4'        -28.2250     0.1690    12.3490 C.3          1 SAH887   0.0000
    11 O4'        -29.3480    -0.5510    12.8450 O.3          1 SAH887   0.0000
    12 C3'        -28.4140     1.6130    12.8030 C.3          1 SAH887   0.0000
    13 O3'        -28.4380     2.4370    11.6340 O.3          1 SAH887   0.0000
    14 C2'        -29.7680     1.6610    13.4800 C.3          1 SAH887   0.0000
    15 O2'        -30.5310     2.7660    13.0050 O.3          1 SAH887   0.0000
    16 C1'        -30.4230     0.3750    13.0020 C.3          1 SAH887   0.0000
    17 N9         -31.4350    -0.1990    13.9240 N.pl3        1 SAH887   0.0000
    18 C8         -31.3770    -0.2590    15.2640 C.2          1 SAH887   0.0000
    19 N7         -32.4890    -0.8830    15.7160 N.2          1 SAH887   0.0000
    20 C5         -33.2400    -1.2140    14.6430 C.ar         1 SAH887   0.0000
    21 C6         -34.4630    -1.8520    14.4840 C.ar         1 SAH887   0.0000
    22 N6         -35.1550    -2.2840    15.5640 N.pl3        1 SAH887   0.0000
    23 N1         -34.9580    -2.0380    13.2400 N.ar         1 SAH887   0.0000
    24 C2         -34.2810    -1.6140    12.1580 C.ar         1 SAH887   0.0000
    25 N3         -33.1070    -0.9900    12.2860 N.ar         1 SAH887   0.0000
    26 C4         -32.5680    -0.7800    13.5140 C.ar         1 SAH887   0.0000
    27 H1         -24.1141    -3.5107     8.7925 H            1 SAH887   0.0000
    28 H2         -22.5697    -3.0285     8.5707 H            1 SAH887   0.0000
    29 HA         -24.8173    -1.5374     8.4001 H            1 SAH887   0.0000
    30 HB1        -23.7071     0.2721     9.9014 H            1 SAH887   0.0000
    31 HB2        -23.3161    -1.0748    10.7378 H            1 SAH887   0.0000
    32 HG1        -25.5833    -1.7183    10.8429 H            1 SAH887   0.0000
    33 HG2        -26.0126    -0.4659     9.8870 H            1 SAH887   0.0000
    34 H5'1       -26.8451    -0.3214    13.8275 H            1 SAH887   0.0000
    35 H5'2       -26.9597    -1.4542    12.6569 H            1 SAH887   0.0000
    36 H4'        -28.2382     0.1400    11.3495 H            1 SAH887   0.0000
    37 H3'        -27.6863     1.8938    13.4288 H            1 SAH887   0.0000
    38 H12        -28.0778     3.3428    11.8572 H            1 SAH887   0.0000
    39 H2'        -29.6791     1.6785    14.4759 H            1 SAH887   0.0000
    40 H14        -30.7525     3.3714    13.7695 H            1 SAH887   0.0000
    41 H1'        -30.8475     0.5365    12.1111 H            1 SAH887   0.0000
    42 H16        -30.6359     0.0978    15.8327 H            1 SAH887   0.0000
    43 H17        -36.0353    -2.7428    15.4431 H            1 SAH887   0.0000
    44 H18        -34.7860    -2.1444    16.4829 H            1 SAH887   0.0000
    45 H19        -34.6614    -1.7679    11.2461 H            1 SAH887   0.0000
    46 H20        -23.2489    -2.9367    10.0530 H            1 SAH887   0.0000
@<TRIPOS>BOND
     1    1    2       1
     2    2    3       1
     3    2    6       1
     4    3    4       1
     5    4    5       1
     6    5    9       1
     7    6    7      ar
     8    6    8      ar
     9    9   10       1
    10   10   11       1
    11   10   12       1
    12   11   16       1
    13   12   13       1
    14   12   14       1
    15   14   15       1
    16   14   16       1
    17   16   17       1
    18   17   18       1
    19   17   26       1
    20   18   19       2
    21   19   20       1
    22   20   21      ar
    23   20   26      ar
    24   21   22       1
    25   21   23      ar
    26   23   24      ar
    27   24   25      ar
    28   25   26      ar
    29    1   27       1
    30    1   28       1
    31    2   29       1
    32    3   30       1
    33    3   31       1
    34    4   32       1
    35    4   33       1
    36    1   46       1
    37    9   34       1
    38    9   35       1
    39   10   36       1
    40   12   37       1
    41   13   38       1
    42   14   39       1
    43   15   40       1
    44   16   41       1
    45   18   42       1
    46   22   43       1
    47   22   44       1
    48   24   45       1
@<TRIPOS>SUBSTRUCTURE
     1 SAH887      1 GROUP             4 A     SAH     0 **** SAH A 887
