@<TRIPOS>MOLECULE
1ty9_FMN_1_ligand
   50    52     1     0     0
SMALL
NO_CHARGES


@<TRIPOS>ATOM
     1 N1          13.7840    -1.7360    71.8020 N.2          1 FMN251   0.0000
     2 C2          14.4110    -2.9290    72.0860 C.2          1 FMN251   0.0000
     3 O2          13.8070    -3.7410    72.6920 O.2          1 FMN251   0.0000
     4 N3          15.6980    -3.1690    71.6830 N.pl3        1 FMN251   0.0000
     5 C4          16.4540    -2.2820    70.9720 C.2          1 FMN251   0.0000
     6 O4          17.5580    -2.6680    70.4950 O.2          1 FMN251   0.0000
     7 C4A         15.8870    -1.0180    70.7090 C.2          1 FMN251   0.0000
     8 N5          16.5720    -0.0390    70.0410 N.2          1 FMN251   0.0000
     9 C5A         15.9130     1.1240    69.7710 C.ar         1 FMN251   0.0000
    10 C6          16.6200     2.1010    69.0750 C.ar         1 FMN251   0.0000
    11 C7          16.0140     3.2790    68.7690 C.ar         1 FMN251   0.0000
    12 C7M         16.8700     4.2330    67.9530 C.3          1 FMN251   0.0000
    13 C8          14.6870     3.5380    69.1720 C.ar         1 FMN251   0.0000
    14 C8M         13.8880     4.7080    68.6610 C.3          1 FMN251   0.0000
    15 C9          13.9540     2.5680    69.8470 C.ar         1 FMN251   0.0000
    16 C9A         14.5900     1.3670    70.1790 C.ar         1 FMN251   0.0000
    17 N10         13.8980     0.4070    70.8850 N.pl3        1 FMN251   0.0000
    18 C10         14.5160    -0.7940    71.0910 C.2          1 FMN251   0.0000
    19 C1'         12.4580     0.5470    71.1980 C.3          1 FMN251   0.0000
    20 C2'         11.5800    -0.1990    70.1180 C.3          1 FMN251   0.0000
    21 O2'         11.4490     0.6450    68.9370 O.3          1 FMN251   0.0000
    22 C3'         10.1620    -0.4800    70.6250 C.3          1 FMN251   0.0000
    23 O3'          9.6530     0.7040    71.2300 O.3          1 FMN251   0.0000
    24 C4'         10.1410    -1.5970    71.6850 C.3          1 FMN251   0.0000
    25 O4'         11.1640    -2.5410    71.3990 O.3          1 FMN251   0.0000
    26 C5'          8.7590    -2.2180    71.6860 C.3          1 FMN251   0.0000
    27 O5'          8.4770    -2.6920    70.3590 O.3          1 FMN251   0.0000
    28 P            7.2130    -3.6940    70.2080 P.3          1 FMN251   0.0000
    29 O1P          6.8900    -3.4820    68.7860 O.co2        1 FMN251   0.0000
    30 O2P          7.6280    -5.0950    70.4910 O.co2        1 FMN251  -1.0000
    31 O3P          6.0680    -3.1640    71.0750 O.co2        1 FMN251  -1.0000
    32 H1          16.1091    -4.0480    71.9245 H            1 FMN251   0.0000
    33 H2          17.5679     1.9372    68.8018 H            1 FMN251   0.0000
    34 H7M1        16.3548     5.0705    67.7710 H            1 FMN251   0.0000
    35 H7M2        17.6999     4.4566    68.4642 H            1 FMN251   0.0000
    36 H7M3        17.1187     3.7998    67.0867 H            1 FMN251   0.0000
    37 H8M1        12.9786     4.6977    69.0768 H            1 FMN251   0.0000
    38 H8M2        14.3541     5.5598    68.9000 H            1 FMN251   0.0000
    39 H8M3        13.8008     4.6434    67.6669 H            1 FMN251   0.0000
    40 H9          12.9965     2.7250    70.0890 H            1 FMN251   0.0000
    41 H1'1        12.2160     1.5172    71.2053 H            1 FMN251   0.0000
    42 H1'2        12.2774     0.1517    72.0986 H            1 FMN251   0.0000
    43 H2'         12.0213    -1.0602    69.8658 H            1 FMN251   0.0000
    44 H13         12.1971     0.4494    68.3029 H            1 FMN251   0.0000
    45 H3'          9.5779    -0.7391    69.8558 H            1 FMN251   0.0000
    46 H15          9.8852     0.7076    72.2027 H            1 FMN251   0.0000
    47 H4'         10.3150    -1.1937    72.5834 H            1 FMN251   0.0000
    48 H17         12.0072    -2.2697    71.8631 H            1 FMN251   0.0000
    49 H5'1         8.0806    -1.5331    71.9518 H            1 FMN251   0.0000
    50 H5'2         8.7319    -2.9818    72.3309 H            1 FMN251   0.0000
@<TRIPOS>BOND
     1    1    2       1
     2    1   18       2
     3    2    3       2
     4    2    4       1
     5    4    5       1
     6    5    6       2
     7    5    7       1
     8    7    8       2
     9    7   18       1
    10    8    9       1
    11    9   10      ar
    12    9   16      ar
    13   10   11      ar
    14   11   12       1
    15   11   13      ar
    16   13   14       1
    17   13   15      ar
    18   15   16      ar
    19   16   17       1
    20   17   18       1
    21   17   19       1
    22   19   20       1
    23   20   21       1
    24   20   22       1
    25   22   23       1
    26   22   24       1
    27   24   25       1
    28   24   26       1
    29   26   27       1
    30   27   28       1
    31   28   29      ar
    32   28   30      ar
    33   28   31      ar
    34    4   32       1
    35   10   33       1
    36   12   34       1
    37   12   35       1
    38   12   36       1
    39   14   37       1
    40   14   38       1
    41   14   39       1
    42   15   40       1
    43   19   41       1
    44   19   42       1
    45   20   43       1
    46   21   44       1
    47   22   45       1
    48   23   46       1
    49   24   47       1
    50   25   48       1
    51   26   49       1
    52   26   50       1
@<TRIPOS>SUBSTRUCTURE
     1 FMN251      1 GROUP             4 A     FMN     0 **** FMN A 251
