@<TRIPOS>MOLECULE
2itx_ANP_1_ligand
   44    46     1     0     0
SMALL
NO_CHARGES


@<TRIPOS>ATOM
     1 PG         -48.6550    -6.4210   -26.1770 P.3          1 ANP2020   0.0000
     2 O1G        -49.1900    -5.0030   -26.3030 O.co2        1 ANP2020   0.0000
     3 O2G        -48.7590    -7.2540   -27.4460 O.co2        1 ANP2020  -1.0000
     4 O3G        -49.1910    -7.1990   -24.9640 O.co2        1 ANP2020  -1.0000
     5 PB         -46.1140    -4.9960   -24.9420 P.3          1 ANP2020   0.0000
     6 O1B        -45.2210    -5.7600   -23.9750 O.co2        1 ANP2020   0.0000
     7 O2B        -45.4300    -3.9810   -25.8820 O.co2        1 ANP2020  -1.0000
     8 N3B        -46.8990    -6.2140   -25.9650 N.3          1 ANP2020   0.0000
     9 PA         -48.0410    -2.8710   -24.1880 P.3          1 ANP2020   0.0000
    10 O1A        -49.5070    -3.1290   -23.9090 O.co2        1 ANP2020   0.0000
    11 O2A        -47.6600    -2.1560   -25.4780 O.co2        1 ANP2020  -1.0000
    12 O3A        -47.2770    -4.3040   -24.0250 O.3          1 ANP2020   0.0000
    13 O5'        -47.4430    -2.0660   -22.9180 O.3          1 ANP2020   0.0000
    14 C5'        -46.9750    -2.7690   -21.7640 C.3          1 ANP2020   0.0000
    15 C4'        -47.8660    -2.4320   -20.5700 C.3          1 ANP2020   0.0000
    16 O4'        -48.2130    -1.0280   -20.5790 O.3          1 ANP2020   0.0000
    17 C3'        -49.2200    -3.1620   -20.5720 C.3          1 ANP2020   0.0000
    18 O3'        -49.2110    -4.4920   -20.0350 O.3          1 ANP2020   0.0000
    19 C2'        -50.1060    -2.2350   -19.7540 C.3          1 ANP2020   0.0000
    20 O2'        -49.9640    -2.4500   -18.3340 O.3          1 ANP2020   0.0000
    21 C1'        -49.5790    -0.8530   -20.1300 C.3          1 ANP2020   0.0000
    22 N9         -50.4950    -0.2770   -21.1700 N.pl3        1 ANP2020   0.0000
    23 C8         -50.4400    -0.4710   -22.5120 C.2          1 ANP2020   0.0000
    24 N7         -51.4330     0.2010   -23.1520 N.2          1 ANP2020   0.0000
    25 C5         -52.1640     0.8470   -22.2120 C.ar         1 ANP2020   0.0000
    26 C6         -53.3670     1.7420   -22.1850 C.ar         1 ANP2020   0.0000
    27 N6         -54.0170     2.0970   -23.3330 N.pl3        1 ANP2020   0.0000
    28 N1         -53.7920     2.1960   -20.9700 N.ar         1 ANP2020   0.0000
    29 C2         -53.1740     1.8540   -19.8200 C.ar         1 ANP2020   0.0000
    30 N3         -52.0940     1.0450   -19.7670 N.ar         1 ANP2020   0.0000
    31 C4         -51.5460     0.5200   -20.9050 C.ar         1 ANP2020   0.0000
    32 H3B        -46.5398    -6.0560   -26.8848 H            1 ANP2020   0.0000
    33 H5'1       -46.0337    -2.4958   -21.5657 H            1 ANP2020   0.0000
    34 H5'2       -47.0070    -3.7534   -21.9371 H            1 ANP2020   0.0000
    35 H4'        -47.3778    -2.6454   -19.7238 H            1 ANP2020   0.0000
    36 H3'        -49.5669    -3.1952   -21.5093 H            1 ANP2020   0.0000
    37 H6         -50.1329    -4.8765   -20.0816 H            1 ANP2020   0.0000
    38 H2'        -51.0626    -2.3319   -20.0290 H            1 ANP2020   0.0000
    39 H8         -49.2990    -3.1790   -18.1721 H            1 ANP2020   0.0000
    40 H1'        -49.5876    -0.2653   -19.3209 H            1 ANP2020   0.0000
    41 H10        -49.7555    -1.0368   -22.9718 H            1 ANP2020   0.0000
    42 H11        -54.8172     2.6951   -23.2900 H            1 ANP2020   0.0000
    43 H12        -53.6925     1.7587   -24.2163 H            1 ANP2020   0.0000
    44 H13        -53.5349     2.2189   -18.9618 H            1 ANP2020   0.0000
@<TRIPOS>BOND
     1    1    2      ar
     2    1    3      ar
     3    1    4      ar
     4    1    8       1
     5    5    6      ar
     6    5    7      ar
     7    5    8       1
     8    5   12       1
     9    9   10      ar
    10    9   11      ar
    11    9   12       1
    12    9   13       1
    13   13   14       1
    14   14   15       1
    15   15   16       1
    16   15   17       1
    17   16   21       1
    18   17   18       1
    19   17   19       1
    20   19   20       1
    21   19   21       1
    22   21   22       1
    23   22   23       1
    24   22   31       1
    25   23   24       2
    26   24   25       1
    27   25   26      ar
    28   25   31      ar
    29   26   27       1
    30   26   28      ar
    31   28   29      ar
    32   29   30      ar
    33   30   31      ar
    34   29   44       1
    35   27   43       1
    36   27   42       1
    37    8   32       1
    38   23   41       1
    39   14   33       1
    40   14   34       1
    41   15   35       1
    42   17   36       1
    43   18   37       1
    44   19   38       1
    45   20   39       1
    46   21   40       1
@<TRIPOS>SUBSTRUCTURE
     1 ANP2020     1 GROUP             4 A     ANP     0 **** ANP A2020
