@<TRIPOS>MOLECULE
1hn2_ANC_1_ligand
   26    28     1     0     0
SMALL
NO_CHARGES


@<TRIPOS>ATOM
     1 C1           0.5210    -0.6440     5.5400 C.ar         1 ANC3001   0.0000
     2 C2           1.2810    -0.2490     4.3830 C.ar         1 ANC3001   0.0000
     3 C3          -0.8640    -0.3470     5.6250 C.ar         1 ANC3001   0.0000
     4 C4           0.6220     0.4600     3.3030 C.ar         1 ANC3001   0.0000
     5 C5          -1.5100     0.3530     4.5630 C.ar         1 ANC3001   0.0000
     6 C6          -0.7930     0.7480     3.4210 C.ar         1 ANC3001   0.0000
     7 C7          -1.1380    -2.5280    10.0370 C.ar         1 ANC3001   0.0000
     8 C8           0.3580    -2.8580     9.9340 C.ar         1 ANC3001   0.0000
     9 C9          -1.7650    -1.8280     8.9860 C.ar         1 ANC3001   0.0000
    10 C10          1.0440    -2.4380     8.7800 C.ar         1 ANC3001   0.0000
    11 C11         -1.0190    -1.4310     7.8380 C.ar         1 ANC3001   0.0000
    12 C12          0.3780    -1.7370     7.7450 C.ar         1 ANC3001   0.0000
    13 C13          1.2110    -1.3360     6.5530 C.ar         1 ANC3001   0.0000
    14 C14         -1.7230    -0.6780     6.7090 C.ar         1 ANC3001   0.0000
    15 N1          -2.9840     0.6900     4.6120 N.pl3        1 ANC3001   0.0000
    16 H1           2.2563    -0.4619     4.3244 H            1 ANC3001   0.0000
    17 H2           1.1343     0.7445     2.4927 H            1 ANC3001   0.0000
    18 H3          -1.2635     1.2321     2.6832 H            1 ANC3001   0.0000
    19 H4          -1.6624    -2.8068    10.8415 H            1 ANC3001   0.0000
    20 H5           0.8289    -3.3549    10.6629 H            1 ANC3001   0.0000
    21 H6          -2.7388    -1.6087     9.0462 H            1 ANC3001   0.0000
    22 H7           2.0195    -2.6380     8.6887 H            1 ANC3001   0.0000
    23 H8           2.1862    -1.5473     6.4871 H            1 ANC3001   0.0000
    24 H9          -2.6943    -0.4410     6.7307 H            1 ANC3001   0.0000
    25 H10         -3.4100     1.1817     3.8526 H            1 ANC3001   0.0000
    26 H11         -3.5323     0.4210     5.4038 H            1 ANC3001   0.0000
@<TRIPOS>BOND
     1    1    2      ar
     2    1    3      ar
     3    1   13      ar
     4    2    4      ar
     5    3    5      ar
     6    3   14      ar
     7    4    6      ar
     8    5    6      ar
     9    5   15       1
    10    7    8      ar
    11    7    9      ar
    12    8   10      ar
    13    9   11      ar
    14   10   12      ar
    15   11   12      ar
    16   11   14      ar
    17   12   13      ar
    18    2   16       1
    19    4   17       1
    20    6   18       1
    21    7   19       1
    22    8   20       1
    23    9   21       1
    24   10   22       1
    25   13   23       1
    26   14   24       1
    27   15   25       1
    28   15   26       1
@<TRIPOS>SUBSTRUCTURE
     1 ANC3001     1 GROUP             4 A     ANC     0 **** ANC A3001
