@<TRIPOS>MOLECULE
4b1f_KRH_2_ligand
   59    63     1     0     0
SMALL
NO_CHARGES


@<TRIPOS>ATOM
     1 N1          14.9050    16.1700   -21.2030 N.pl3        1 KRH1257   0.0000
     2 C2          14.2880    17.0250   -20.3370 C.2          1 KRH1257   0.0000
     3 N3          14.4290    16.9900   -18.9980 N.pl3        1 KRH1257   0.0000
     4 C4          15.2640    16.0350   -18.4100 C.2          1 KRH1257   0.0000
     5 C5          15.9810    15.1660   -19.2680 C.2          1 KRH1257   0.0000
     6 C6          15.7660    15.2410   -20.7610 C.2          1 KRH1257   0.0000
     7 C7          13.7570    17.9760   -18.1250 C.3          1 KRH1257   0.0000
     8 C8          12.2890    17.6720   -17.8040 C.3          1 KRH1257   0.0000
     9 C9          12.1420    16.4170   -17.0440 C.3          1 KRH1257   0.0000
    10 C10         11.9030    18.6490   -16.6940 C.3          1 KRH1257   0.0000
    11 O11         13.5180    17.8690   -20.7510 O.2          1 KRH1257   0.0000
    12 C12         14.6710    16.2930   -22.6910 C.3          1 KRH1257   0.0000
    13 O13         16.2810    14.4210   -21.5540 O.2          1 KRH1257   0.0000
    14 C14         16.7470    14.3970   -18.4400 C.2          1 KRH1257   0.0000
    15 N15         16.5310    14.7840   -17.1620 N.pl3        1 KRH1257   0.0000
    16 N16         15.5730    15.7780   -17.1620 N.2          1 KRH1257   0.0000
    17 C17         17.6460    13.2800   -18.7420 C.2          1 KRH1257   0.0000
    18 N20         19.4050    12.0130   -18.8340 N.2          1 KRH1257   0.0000
    19 C21         18.3710    11.3050   -19.2860 C.2          1 KRH1257   0.0000
    20 C23         17.0770    14.0690   -16.0260 C.3          1 KRH1257   0.0000
    21 C24         16.2670    12.7450   -16.0550 C.ar         1 KRH1257   0.0000
    22 C25         16.9150    11.5650   -16.1270 C.ar         1 KRH1257   0.0000
    23 C26         16.2840    10.3070   -16.1890 C.ar         1 KRH1257   0.0000
    24 C27         14.9000    10.1900   -16.1590 C.ar         1 KRH1257   0.0000
    25 C28         14.1610    11.3670   -16.1020 C.ar         1 KRH1257   0.0000
    26 C29         14.8230    12.6390   -16.0420 C.ar         1 KRH1257   0.0000
    27 N29         17.2680    12.0640   -19.2950 N.pl3        1 KRH1257   0.0000
    28 C30         13.9810    13.7410   -15.9600 C.ar         1 KRH1257   0.0000
    29 C31         12.6100    13.6560   -15.9530 C.ar         1 KRH1257   0.0000
    30 C32         11.9940    12.4040   -16.0450 C.ar         1 KRH1257   0.0000
    31 C33         12.7830    11.2920   -16.1020 C.ar         1 KRH1257   0.0000
    32 C34         18.9990    13.2360   -18.4410 C.2          1 KRH1257   0.0000
    33 C35         15.9070    11.6770   -19.6990 C.3          1 KRH1257   0.0000
    34 H1          13.7964    18.8670   -18.5774 H            1 KRH1257   0.0000
    35 H2          14.2599    18.0180   -17.2617 H            1 KRH1257   0.0000
    36 H3          11.6900    17.7236   -18.6031 H            1 KRH1257   0.0000
    37 H4          11.1738    16.2536   -16.8543 H            1 KRH1257   0.0000
    38 H5          12.5094    15.6574   -17.5806 H            1 KRH1257   0.0000
    39 H6          12.6431    16.4889   -16.1816 H            1 KRH1257   0.0000
    40 H7          10.9480    18.5010   -16.4369 H            1 KRH1257   0.0000
    41 H8          12.4896    18.4982   -15.8983 H            1 KRH1257   0.0000
    42 H9          12.0188    19.5871   -17.0205 H            1 KRH1257   0.0000
    43 H10         15.1981    15.5914   -23.1704 H            1 KRH1257   0.0000
    44 H11         13.6980    16.1707   -22.8866 H            1 KRH1257   0.0000
    45 H12         14.9621    17.1983   -23.0005 H            1 KRH1257   0.0000
    46 H13         18.4125    10.3487   -19.5756 H            1 KRH1257   0.0000
    47 H14         16.9236    14.5698   -15.1741 H            1 KRH1257   0.0000
    48 H15         18.0556    13.8984   -16.1408 H            1 KRH1257   0.0000
    49 H16         17.9148    11.5841   -16.1371 H            1 KRH1257   0.0000
    50 H17         16.8439     9.4811   -16.2560 H            1 KRH1257   0.0000
    51 H18         14.4531     9.2956   -16.1776 H            1 KRH1257   0.0000
    52 H19         14.3970    14.6485   -15.9028 H            1 KRH1257   0.0000
    53 H20         12.0554    14.4851   -15.8825 H            1 KRH1257   0.0000
    54 H21         10.9974    12.3253   -16.0685 H            1 KRH1257   0.0000
    55 H22         12.3480    10.3926   -16.1452 H            1 KRH1257   0.0000
    56 H23         19.5531    13.9559   -18.0229 H            1 KRH1257   0.0000
    57 H24         15.9201    10.7470   -20.0664 H            1 KRH1257   0.0000
    58 H25         15.3006    11.7131   -18.9047 H            1 KRH1257   0.0000
    59 H26         15.5754    12.3079   -20.4005 H            1 KRH1257   0.0000
@<TRIPOS>BOND
     1    1    2       1
     2    1    6       1
     3    1   12       1
     4    2    3       1
     5    2   11       2
     6    3    4       1
     7    3    7       1
     8    4    5       1
     9    4   16       2
    10    5    6       1
    11    5   14       2
    12    6   13       2
    13    7    8       1
    14    8    9       1
    15    8   10       1
    16   14   15       1
    17   14   17       1
    18   15   16       1
    19   15   20       1
    20   17   27       1
    21   17   32       2
    22   18   19       2
    23   18   32       1
    24   19   27       1
    25   20   21       1
    26   21   22      ar
    27   21   26      ar
    28   22   23      ar
    29   23   24      ar
    30   24   25      ar
    31   25   26      ar
    32   25   31      ar
    33   26   28      ar
    34   27   33       1
    35   28   29      ar
    36   29   30      ar
    37   30   31      ar
    38    7   34       1
    39    7   35       1
    40    8   36       1
    41    9   37       1
    42    9   38       1
    43    9   39       1
    44   10   40       1
    45   10   41       1
    46   10   42       1
    47   12   43       1
    48   12   44       1
    49   12   45       1
    50   19   46       1
    51   20   47       1
    52   20   48       1
    53   22   49       1
    54   23   50       1
    55   24   51       1
    56   28   52       1
    57   29   53       1
    58   30   54       1
    59   31   55       1
    60   32   56       1
    61   33   57       1
    62   33   58       1
    63   33   59       1
@<TRIPOS>SUBSTRUCTURE
     1 KRH1257     1 GROUP             4 B     KRH     0 **** KRH B1257
