@<TRIPOS>MOLECULE
./coach420/1arc/ligand.pdb
 20 20 0 0 0
SMALL
GASTEIGER

@<TRIPOS>ATOM
      1  S         -2.3460   -5.4390    9.6940 S.O2  270  TCK270      0.0772
      2  O1S       -2.4640   -6.5140   10.6340 O.2   270  TCK270     -0.1516
      3  O2S       -1.4200   -5.3820    8.6140 O.2   270  TCK270     -0.1516
      4  C1        -2.2840   -4.0020   10.6630 C.ar  270  TCK270      0.1235
      5  C2        -1.7570   -2.8300   10.1760 C.ar  270  TCK270      0.0196
      6  C3        -1.8120   -1.6870   10.9280 C.ar  270  TCK270     -0.0029
      7  C4        -2.3370   -1.6960   12.2130 C.ar  270  TCK270     -0.0218
      8  C5        -2.9610   -2.8530   12.6510 C.ar  270  TCK270     -0.0029
      9  C6        -2.8040   -4.0300   11.9400 C.ar  270  TCK270      0.0196
     10  C7        -2.1660   -0.5710   13.1940 C.3   270  TCK270      0.0310
     11  N         -3.8470   -5.4880    9.0070 N.3   270  TCK270     -0.0718
     12  CA        -3.9160   -5.6120    7.5250 C.3   270  TCK270      0.1547
     13  C         -4.8600   -4.5400    6.9700 C.2   270  TCK270      0.1686
     14  O         -4.7190   -4.4180    5.7470 O.2   270  TCK270     -0.2945
     15  CB        -4.3570   -7.0100    7.0950 C.3   270  TCK270      0.0269
     16  CG        -3.1230   -7.9540    7.0350 C.3   270  TCK270      0.0035
     17  CD        -3.5380   -9.4200    6.8020 C.3   270  TCK270      0.0206
     18  CE        -2.2810  -10.3170    6.7010 C.3   270  TCK270      0.1093
     19  NZ        -2.6370  -11.7430    6.6850 N.3   270  TCK270     -0.1314
     20  CM        -5.1790   -3.4140    7.8840 C.3   270  TCK270      0.0738
@<TRIPOS>BOND
     1     1     3    2
     2     1    11    1
     3     1     2    2
     4     1     4    1
     5     4     5   ar
     6     4     9   ar
     7     5     6   ar
     8     6     7   ar
     9     7     8   ar
    10     7    10    1
    11     8     9   ar
    12    11    12    1
    13    12    13    1
    14    12    15    1
    15    13    14    2
    16    13    20    1
    17    15    16    1
    18    16    17    1
    19    17    18    1
    20    18    19    1
