@<TRIPOS>MOLECULE
4xdm_GDM_1_ligand
   80    81     1     0     0
SMALL
NO_CHARGES


@<TRIPOS>ATOM
     1 O1           7.0870    14.0410    49.1120 O.2          1 GDM301   0.0000
     2 O2           6.0860    10.0070    43.8940 O.3          1 GDM301   0.0000
     3 O3           5.9960     7.5720    44.8250 O.3          1 GDM301   0.0000
     4 O4           4.7280     6.1720    43.5110 O.2          1 GDM301   0.0000
     5 O5          -0.4900     6.9850    47.7970 O.3          1 GDM301   0.0000
     6 O6          -0.9410     9.7360    47.0370 O.3          1 GDM301   0.0000
     7 O7           2.4540     8.2430    50.9950 O.3          1 GDM301   0.0000
     8 O8           5.2080     7.8070    50.8540 O.2          1 GDM301   0.0000
     9 O9           3.4760    12.9180    50.3610 O.2          1 GDM301   0.0000
    10 N1           6.2380    12.3150    50.2210 N.am         1 GDM301   0.0000
    11 N2           6.9640     5.8110    43.6210 N.am         1 GDM301   0.0000
    12 C1           6.2750    13.1370    49.1670 C.2          1 GDM301   0.0000
    13 C2           5.3360    13.0390    48.0440 C.2          1 GDM301   0.0000
    14 C3           5.1730    11.8940    47.3490 C.2          1 GDM301   0.0000
    15 C4           4.2310    11.7650    46.2390 C.2          1 GDM301   0.0000
    16 C5           4.3070    10.8420    45.2740 C.2          1 GDM301   0.0000
    17 C6           5.4080     9.8170    45.1430 C.3          1 GDM301   0.0000
    18 C7           4.8540     8.4070    44.9980 C.3          1 GDM301   0.0000
    19 C8           4.0530     7.8840    46.1580 C.2          1 GDM301   0.0000
    20 C9           2.7390     7.6670    45.9580 C.2          1 GDM301   0.0000
    21 C10          1.8020     7.1080    47.0010 C.3          1 GDM301   0.0000
    22 C11          0.3960     7.7090    46.9180 C.3          1 GDM301   0.0000
    23 C12          0.3690     9.2010    47.2580 C.3          1 GDM301   0.0000
    24 C13          0.7910     9.4160    48.7090 C.3          1 GDM301   0.0000
    25 C14          0.7500    10.8450    49.2550 C.3          1 GDM301   0.0000
    26 C15          1.3410    10.9230    50.6900 C.3          1 GDM301   0.0000
    27 C16          2.8340    10.6500    50.6630 C.2          1 GDM301   0.0000
    28 C17          3.3330     9.2660    50.7930 C.2          1 GDM301   0.0000
    29 C18          4.7960     8.9920    50.7300 C.2          1 GDM301   0.0000
    30 C19          5.6990    10.0350    50.5480 C.2          1 GDM301   0.0000
    31 C20          5.2890    11.3640    50.4120 C.2          1 GDM301   0.0000
    32 C21          3.8400    11.7270    50.4710 C.2          1 GDM301   0.0000
    33 C22          4.6220    14.2980    47.6700 C.3          1 GDM301   0.0000
    34 C23          6.8850    11.1760    43.8360 C.3          1 GDM301   0.0000
    35 C24          5.8440     6.4590    43.9330 C.2          1 GDM301   0.0000
    36 C25          4.7400     7.5820    47.4680 C.3          1 GDM301   0.0000
    37 C26          1.7540     5.6040    46.7890 C.3          1 GDM301   0.0000
    38 C27         -1.2310     9.9950    45.6590 C.3          1 GDM301   0.0000
    39 C28          1.4360    11.7970    48.2710 C.3          1 GDM301   0.0000
    40 C29          2.2480     7.8290    52.3470 C.3          1 GDM301   0.0000
    41 H1          -1.2349     6.5844    47.2634 H            1 GDM301   0.0000
    42 H2           6.9549    12.4069    50.9121 H            1 GDM301   0.0000
    43 H3           6.9314     5.0249    43.0038 H            1 GDM301   0.0000
    44 H4           7.8380     6.1103    44.0038 H            1 GDM301   0.0000
    45 H5           5.7214    11.0979    47.6049 H            1 GDM301   0.0000
    46 H6           3.4727    12.4157    46.1979 H            1 GDM301   0.0000
    47 H7           3.5799    10.8298    44.5876 H            1 GDM301   0.0000
    48 H8           6.0462     9.8751    45.9107 H            1 GDM301   0.0000
    49 H9           4.2929     8.3632    44.1714 H            1 GDM301   0.0000
    50 H10          2.3595     7.8907    45.0603 H            1 GDM301   0.0000
    51 H11          2.1799     7.2944    47.9079 H            1 GDM301   0.0000
    52 H12          0.0646     7.5973    45.9811 H            1 GDM301   0.0000
    53 H13          1.0151     9.6777    46.6619 H            1 GDM301   0.0000
    54 H14          1.7316     9.0885    48.7986 H            1 GDM301   0.0000
    55 H15          0.1884     8.8598    49.2813 H            1 GDM301   0.0000
    56 H16         -0.2110    11.1157    49.3123 H            1 GDM301   0.0000
    57 H17          0.8920    10.2422    51.2687 H            1 GDM301   0.0000
    58 H18          1.1798    11.8365    51.0635 H            1 GDM301   0.0000
    59 H19          6.6763     9.8260    50.5133 H            1 GDM301   0.0000
    60 H20          4.0117    14.1185    46.8984 H            1 GDM301   0.0000
    61 H21          4.0867    14.6219    48.4501 H            1 GDM301   0.0000
    62 H22          5.2900    14.9958    47.4113 H            1 GDM301   0.0000
    63 H23          7.3221    11.2368    42.9386 H            1 GDM301   0.0000
    64 H24          6.3095    11.9807    43.9817 H            1 GDM301   0.0000
    65 H25          7.5873    11.1354    44.5467 H            1 GDM301   0.0000
    66 H26          4.0676     7.2454    48.1272 H            1 GDM301   0.0000
    67 H27          5.4425     6.8852    47.3231 H            1 GDM301   0.0000
    68 H28          5.1650     8.4154    47.8214 H            1 GDM301   0.0000
    69 H29          1.1410     5.1918    47.4630 H            1 GDM301   0.0000
    70 H30          1.4172     5.4078    45.8681 H            1 GDM301   0.0000
    71 H31          2.6722     5.2228    46.8964 H            1 GDM301   0.0000
    72 H32         -2.1564    10.3651    45.5770 H            1 GDM301   0.0000
    73 H33         -0.5740    10.6573    45.2989 H            1 GDM301   0.0000
    74 H34         -1.1652     9.1435    45.1388 H            1 GDM301   0.0000
    75 H35          1.4062    12.7287    48.6329 H            1 GDM301   0.0000
    76 H36          2.3882    11.5182    48.1463 H            1 GDM301   0.0000
    77 H37          0.9616    11.7657    47.3913 H            1 GDM301   0.0000
    78 H38          1.5879     7.0781    52.3688 H            1 GDM301   0.0000
    79 H39          3.1158     7.5214    52.7373 H            1 GDM301   0.0000
    80 H40          1.8961     8.5977    52.8811 H            1 GDM301   0.0000
@<TRIPOS>BOND
     1    1   12       2
     2    2   17       1
     3    2   34       1
     4    3   18       1
     5    3   35       1
     6    4   35       2
     7    5   22       1
     8    6   23       1
     9    6   38       1
    10    7   28       1
    11    7   40       1
    12    8   29       2
    13    9   32       2
    14   10   12      am
    15   10   31       1
    16   11   35      am
    17   12   13       1
    18   13   14       2
    19   13   33       1
    20   14   15       1
    21   15   16       2
    22   16   17       1
    23   17   18       1
    24   18   19       1
    25   19   20       2
    26   19   36       1
    27   20   21       1
    28   21   22       1
    29   21   37       1
    30   22   23       1
    31   23   24       1
    32   24   25       1
    33   25   26       1
    34   25   39       1
    35   26   27       1
    36   27   28       2
    37   27   32       1
    38   28   29       1
    39   29   30       1
    40   30   31       2
    41   31   32       1
    42    5   41       1
    43   10   42       1
    44   11   43       1
    45   11   44       1
    46   14   45       1
    47   15   46       1
    48   16   47       1
    49   17   48       1
    50   18   49       1
    51   20   50       1
    52   21   51       1
    53   22   52       1
    54   23   53       1
    55   24   54       1
    56   24   55       1
    57   25   56       1
    58   26   57       1
    59   26   58       1
    60   30   59       1
    61   33   60       1
    62   33   61       1
    63   33   62       1
    64   34   63       1
    65   34   64       1
    66   34   65       1
    67   36   66       1
    68   36   67       1
    69   36   68       1
    70   37   69       1
    71   37   70       1
    72   37   71       1
    73   38   72       1
    74   38   73       1
    75   38   74       1
    76   39   75       1
    77   39   76       1
    78   39   77       1
    79   40   78       1
    80   40   79       1
    81   40   80       1
@<TRIPOS>SUBSTRUCTURE
     1 GDM301      1 GROUP             4 A     GDM     0 **** GDM A 301
