@<TRIPOS>MOLECULE
2x0q_ATP_1_ligand
   43    45     1     0     0
SMALL
NO_CHARGES


@<TRIPOS>ATOM
     1 PG          33.1320    17.4390    12.9000 P.3          1 ATP1607   0.0000
     2 O1G         31.7390    17.2410    12.3940 O.co2        1 ATP1607   0.0000
     3 O2G         33.2650    17.3220    14.3960 O.co2        1 ATP1607  -1.0000
     4 O3G         33.8050    18.6780    12.3770 O.co2        1 ATP1607  -1.0000
     5 PB          34.2960    15.5570    10.9220 P.3          1 ATP1607   0.0000
     6 O1B         35.0170    14.2410    11.1380 O.co2        1 ATP1607   0.0000
     7 O2B         34.9500    16.5750    10.0470 O.co2        1 ATP1607  -1.0000
     8 O3B         34.0410    16.1780    12.3970 O.3          1 ATP1607   0.0000
     9 PA          32.3340    14.7590     8.9040 P.3          1 ATP1607   0.0000
    10 O1A         30.9750    15.3900     8.6530 O.co2        1 ATP1607   0.0000
    11 O2A         33.4330    14.9150     7.8950 O.co2        1 ATP1607  -1.0000
    12 O3A         32.7880    15.2800    10.3820 O.3          1 ATP1607   0.0000
    13 O5'         32.0410    13.1960     9.0740 O.3          1 ATP1607   0.0000
    14 C5'         31.0210    12.7760     9.9890 C.3          1 ATP1607   0.0000
    15 C4'         31.6490    11.8080    10.9910 C.3          1 ATP1607   0.0000
    16 O4'         30.7150    11.5190    12.0230 O.3          1 ATP1607   0.0000
    17 C3'         31.9880    10.4620    10.3700 C.3          1 ATP1607   0.0000
    18 O3'         33.0320     9.8570    11.1570 O.3          1 ATP1607   0.0000
    19 C2'         30.7080     9.6720    10.5710 C.3          1 ATP1607   0.0000
    20 O2'         30.9030     8.2620    10.5420 O.3          1 ATP1607   0.0000
    21 C1'         30.2920    10.1490    11.9550 C.3          1 ATP1607   0.0000
    22 N9          28.8310    10.0890    12.1740 N.pl3        1 ATP1607   0.0000
    23 C8          28.2320     9.5220    13.2460 C.2          1 ATP1607   0.0000
    24 N7          26.8830     9.6420    13.1810 N.2          1 ATP1607   0.0000
    25 C5          26.6080    10.2820    12.0300 C.ar         1 ATP1607   0.0000
    26 C6          25.3800    10.7350    11.3460 C.ar         1 ATP1607   0.0000
    27 N6          24.1850    10.4850    11.9090 N.pl3        1 ATP1607   0.0000
    28 N1          25.5030    11.3820    10.1590 N.ar         1 ATP1607   0.0000
    29 C2          26.7160    11.6160     9.6020 C.ar         1 ATP1607   0.0000
    30 N3          27.8760    11.2430    10.1700 N.ar         1 ATP1607   0.0000
    31 C4          27.8880    10.5870    11.3660 C.ar         1 ATP1607   0.0000
    32 H5'1        30.2861    12.3170     9.4896 H            1 ATP1607   0.0000
    33 H5'2        30.6509    13.5699    10.4714 H            1 ATP1607   0.0000
    34 H4'         32.4727    12.2160    11.3848 H            1 ATP1607   0.0000
    35 H3'         32.2376    10.5413     9.4049 H            1 ATP1607   0.0000
    36 H5          33.8371    10.4501    11.1551 H            1 ATP1607   0.0000
    37 H2'         30.0248     9.9411     9.8922 H            1 ATP1607   0.0000
    38 H7          30.8030     7.9309     9.6037 H            1 ATP1607   0.0000
    39 H1'         30.7630     9.6126    12.6553 H            1 ATP1607   0.0000
    40 H9          28.7221     9.0713    13.9921 H            1 ATP1607   0.0000
    41 H10         23.3460    10.7864    11.4560 H            1 ATP1607   0.0000
    42 H11         24.1352     9.9976    12.7808 H            1 ATP1607   0.0000
    43 H12         26.7500    12.0909     8.7226 H            1 ATP1607   0.0000
@<TRIPOS>BOND
     1    1    2      ar
     2    1    3      ar
     3    1    4      ar
     4    1    8       1
     5    5    6      ar
     6    5    7      ar
     7    5    8       1
     8    5   12       1
     9    9   10      ar
    10    9   11      ar
    11    9   12       1
    12    9   13       1
    13   13   14       1
    14   14   15       1
    15   15   16       1
    16   15   17       1
    17   16   21       1
    18   17   18       1
    19   17   19       1
    20   19   20       1
    21   19   21       1
    22   21   22       1
    23   22   23       1
    24   22   31       1
    25   23   24       2
    26   24   25       1
    27   25   26      ar
    28   25   31      ar
    29   26   27       1
    30   26   28      ar
    31   28   29      ar
    32   29   30      ar
    33   30   31      ar
    34   29   43       1
    35   27   42       1
    36   27   41       1
    37   23   40       1
    38   14   32       1
    39   14   33       1
    40   15   34       1
    41   17   35       1
    42   18   36       1
    43   19   37       1
    44   20   38       1
    45   21   39       1
@<TRIPOS>SUBSTRUCTURE
     1 ATP1607     1 GROUP             4 A     ATP     0 **** ATP A1607
