@<TRIPOS>MOLECULE
2pan_FAD_7_ligand
   84    89     1     0     0
SMALL
NO_CHARGES


@<TRIPOS>ATOM
     1 PA         -31.3970    52.9250   -45.6710 P.3          1 FAD701   0.0000
     2 O1A        -29.9030    52.8880   -45.7940 O.co2        1 FAD701   0.0000
     3 O2A        -32.0630    51.8630   -46.4970 O.co2        1 FAD701  -1.0000
     4 O5B        -31.9030    54.3740   -46.0930 O.3          1 FAD701   0.0000
     5 C5B        -32.1960    55.2730   -45.0550 C.3          1 FAD701   0.0000
     6 C4B        -32.4630    56.6930   -45.5320 C.3          1 FAD701   0.0000
     7 O4B        -31.3850    57.2530   -46.2470 O.3          1 FAD701   0.0000
     8 C3B        -33.6710    56.8000   -46.4390 C.3          1 FAD701   0.0000
     9 O3B        -34.7660    57.2130   -45.6570 O.3          1 FAD701   0.0000
    10 C2B        -33.2370    57.8140   -47.5030 C.3          1 FAD701   0.0000
    11 O2B        -34.1880    58.8330   -47.7850 O.3          1 FAD701   0.0000
    12 C1B        -31.9380    58.3680   -46.9080 C.3          1 FAD701   0.0000
    13 N9A        -30.9480    58.9400   -47.8440 N.pl3        1 FAD701   0.0000
    14 C8A        -30.6040    58.5290   -49.1040 C.2          1 FAD701   0.0000
    15 N7A        -29.6230    59.3410   -49.5710 N.2          1 FAD701   0.0000
    16 C5A        -29.3260    60.2600   -48.6260 C.ar         1 FAD701   0.0000
    17 C6A        -28.4220    61.3210   -48.5660 C.ar         1 FAD701   0.0000
    18 N6A        -27.5700    61.5950   -49.5490 N.pl3        1 FAD701   0.0000
    19 N1A        -28.3650    62.0810   -47.4250 N.ar         1 FAD701   0.0000
    20 C2A        -29.1900    61.8150   -46.3570 C.ar         1 FAD701   0.0000
    21 N3A        -30.0790    60.7710   -46.4230 N.ar         1 FAD701   0.0000
    22 C4A        -30.1510    60.0080   -47.5370 C.ar         1 FAD701   0.0000
    23 N1         -30.8690    46.0730   -40.0110 N.2          1 FAD701   0.0000
    24 C2         -30.7090    46.4780   -38.7030 C.2          1 FAD701   0.0000
    25 O2         -30.4520    47.6610   -38.4240 O.2          1 FAD701   0.0000
    26 N3         -30.8490    45.5620   -37.6850 N.pl3        1 FAD701   0.0000
    27 C4         -31.1320    44.2370   -37.9440 C.2          1 FAD701   0.0000
    28 O4         -30.8300    43.3800   -37.1130 O.2          1 FAD701   0.0000
    29 C4X        -31.2960    43.8390   -39.2530 C.2          1 FAD701   0.0000
    30 N5         -31.5750    42.5140   -39.5150 N.2          1 FAD701   0.0000
    31 C5X        -31.7180    42.0980   -40.8200 C.ar         1 FAD701   0.0000
    32 C6         -32.0040    40.7650   -41.0580 C.ar         1 FAD701   0.0000
    33 C7         -32.1530    40.3190   -42.3640 C.ar         1 FAD701   0.0000
    34 C7M        -32.1920    38.8300   -42.5530 C.3          1 FAD701   0.0000
    35 C8         -32.0260    41.2170   -43.4380 C.ar         1 FAD701   0.0000
    36 C8M        -31.7700    40.7280   -44.8370 C.3          1 FAD701   0.0000
    37 C9         -31.7400    42.5550   -43.1850 C.ar         1 FAD701   0.0000
    38 C9A        -31.5960    43.0080   -41.8750 C.ar         1 FAD701   0.0000
    39 N10        -31.3300    44.3530   -41.6020 N.pl3        1 FAD701   0.0000
    40 C10        -31.1590    44.7610   -40.2890 C.2          1 FAD701   0.0000
    41 C1'        -31.4610    45.4180   -42.6680 C.3          1 FAD701   0.0000
    42 C2'        -32.6980    46.2910   -42.5170 C.3          1 FAD701   0.0000
    43 O2'        -33.8350    45.6060   -42.9850 O.3          1 FAD701   0.0000
    44 C3'        -32.5080    47.6040   -43.2950 C.3          1 FAD701   0.0000
    45 O3'        -31.9370    47.3740   -44.5750 O.3          1 FAD701   0.0000
    46 C4'        -31.6500    48.6190   -42.5300 C.3          1 FAD701   0.0000
    47 O4'        -32.0130    48.6230   -41.1690 O.3          1 FAD701   0.0000
    48 C5'        -31.8580    50.0220   -43.0960 C.3          1 FAD701   0.0000
    49 O5'        -30.8230    50.8980   -42.6970 O.3          1 FAD701   0.0000
    50 P          -31.0340    52.4910   -42.8270 P.3          1 FAD701   0.0000
    51 O1P        -31.9360    52.9120   -41.6950 O.co2        1 FAD701   0.0000
    52 O2P        -29.7070    53.1980   -42.8450 O.co2        1 FAD701  -1.0000
    53 O3P        -31.9120    52.7400   -44.1590 O.3          1 FAD701   0.0000
    54 H5B1       -31.4192    55.2923   -44.4256 H            1 FAD701   0.0000
    55 H5B2       -33.0079    54.9442   -44.5725 H            1 FAD701   0.0000
    56 H4B        -32.6294    57.2630   -44.7274 H            1 FAD701   0.0000
    57 H3B        -33.8638    55.9152   -46.8633 H            1 FAD701   0.0000
    58 H5         -34.5644    58.1010   -45.2438 H            1 FAD701   0.0000
    59 H2B        -33.0240    57.3255   -48.3492 H            1 FAD701   0.0000
    60 H7         -34.3752    59.3540   -46.9522 H            1 FAD701   0.0000
    61 H1B        -32.1697    59.0612   -46.2255 H            1 FAD701   0.0000
    62 H8A        -31.0084    57.7589   -49.5974 H            1 FAD701   0.0000
    63 H6A1       -26.9390    62.3661   -49.4634 H            1 FAD701   0.0000
    64 H6A2       -27.5601    61.0300   -50.3741 H            1 FAD701   0.0000
    65 H2A        -29.1423    62.3810   -45.5340 H            1 FAD701   0.0000
    66 H13        -30.7433    45.8636   -36.7374 H            1 FAD701   0.0000
    67 H14        -32.1027    40.1273   -40.2941 H            1 FAD701   0.0000
    68 H7M1       -32.3014    38.6201   -43.5246 H            1 FAD701   0.0000
    69 H7M2       -31.3388    38.4292   -42.2193 H            1 FAD701   0.0000
    70 H7M3       -32.9619    38.4490   -42.0410 H            1 FAD701   0.0000
    71 H8M1       -31.7109    41.5098   -45.4578 H            1 FAD701   0.0000
    72 H8M2       -30.9098    40.2185   -44.8598 H            1 FAD701   0.0000
    73 H8M3       -32.5190    40.1306   -45.1236 H            1 FAD701   0.0000
    74 H21        -31.6373    43.1946   -43.9468 H            1 FAD701   0.0000
    75 H1'1       -31.5001    44.9677   -43.5600 H            1 FAD701   0.0000
    76 H1'2       -30.6533    46.0062   -42.6266 H            1 FAD701   0.0000
    77 H2'        -32.8259    46.5051   -41.5486 H            1 FAD701   0.0000
    78 H25        -33.7119    45.3763   -43.9504 H            1 FAD701   0.0000
    79 H3'        -33.4113    48.0104   -43.4326 H            1 FAD701   0.0000
    80 H27        -32.2556    48.0750   -45.2130 H            1 FAD701   0.0000
    81 H4'        -30.6858    48.3676   -42.6146 H            1 FAD701   0.0000
    82 H29        -31.4592    47.9532   -40.6743 H            1 FAD701   0.0000
    83 H5'1       -32.7319    50.3795   -42.7665 H            1 FAD701   0.0000
    84 H5'2       -31.8740    49.9709   -44.0946 H            1 FAD701   0.0000
@<TRIPOS>BOND
     1    1    2      ar
     2    1    3      ar
     3    1    4       1
     4    1   53       1
     5    4    5       1
     6    5    6       1
     7    6    7       1
     8    6    8       1
     9    7   12       1
    10    8    9       1
    11    8   10       1
    12   10   11       1
    13   10   12       1
    14   12   13       1
    15   13   14       1
    16   13   22       1
    17   14   15       2
    18   15   16       1
    19   16   17      ar
    20   16   22      ar
    21   17   18       1
    22   17   19      ar
    23   19   20      ar
    24   20   21      ar
    25   21   22      ar
    26   23   24       1
    27   23   40       2
    28   24   25       2
    29   24   26       1
    30   26   27       1
    31   27   28       2
    32   27   29       1
    33   29   30       2
    34   29   40       1
    35   30   31       1
    36   31   32      ar
    37   31   38      ar
    38   32   33      ar
    39   33   34       1
    40   33   35      ar
    41   35   36       1
    42   35   37      ar
    43   37   38      ar
    44   38   39       1
    45   39   40       1
    46   39   41       1
    47   41   42       1
    48   42   43       1
    49   42   44       1
    50   44   45       1
    51   44   46       1
    52   46   47       1
    53   46   48       1
    54   48   49       1
    55   49   50       1
    56   50   51      ar
    57   50   52      ar
    58   50   53       1
    59   48   84       1
    60    5   54       1
    61    5   55       1
    62    6   56       1
    63    8   57       1
    64    9   58       1
    65   10   59       1
    66   11   60       1
    67   12   61       1
    68   14   62       1
    69   18   63       1
    70   18   64       1
    71   20   65       1
    72   26   66       1
    73   32   67       1
    74   34   68       1
    75   34   69       1
    76   34   70       1
    77   36   71       1
    78   36   72       1
    79   36   73       1
    80   37   74       1
    81   41   75       1
    82   41   76       1
    83   42   77       1
    84   43   78       1
    85   44   79       1
    86   45   80       1
    87   46   81       1
    88   47   82       1
    89   48   83       1
@<TRIPOS>SUBSTRUCTURE
     1 FAD701      1 GROUP             4 A     FAD     0 **** FAD A 701
