@<TRIPOS>MOLECULE
4zla_BES_6_ligand
   45    45     1     0     0
SMALL
NO_CHARGES


@<TRIPOS>ATOM
     1 N2          12.8770     6.9630    -6.3800 N.3          1 BES505   0.0000
     2 C1          13.1710     7.5680    -7.6190 C.3          1 BES505   0.0000
     3 C6          11.9610     7.6580    -8.5420 C.3          1 BES505   0.0000
     4 C7          10.7290     8.5620    -8.0220 C.ar         1 BES505   0.0000
     5 C8          10.3730     9.7050    -8.7440 C.ar         1 BES505   0.0000
     6 C12         10.0030     8.2000    -6.8950 C.ar         1 BES505   0.0000
     7 C9           9.2950    10.5000    -8.3300 C.ar         1 BES505   0.0000
     8 C11          8.9210     9.0010    -6.4750 C.ar         1 BES505   0.0000
     9 C10          8.5790    10.1450    -7.2040 C.ar         1 BES505   0.0000
    10 C2          14.1560     6.6720    -8.3960 C.3          1 BES505   0.0000
    11 O2          15.0940     6.1070    -7.5690 O.3          1 BES505   0.0000
    12 C3          14.7980     7.5670    -9.4840 C.2          1 BES505   0.0000
    13 O3          15.4250     8.5910    -9.1690 O.2          1 BES505   0.0000
    14 N1          14.6180     7.2050   -10.9110 N.am         1 BES505   0.0000
    15 C4          15.2020     8.0290   -11.9320 C.3          1 BES505   0.0000
    16 C13         15.9250     7.0740   -12.9490 C.3          1 BES505   0.0000
    17 C14         16.7430     7.8860   -13.9450 C.3          1 BES505   0.0000
    18 C15         17.8950     8.5520   -13.2630 C.3          1 BES505   0.0000
    19 C16         17.2660     6.9250   -15.0280 C.3          1 BES505   0.0000
    20 C5          14.1870     8.8240   -12.5870 C.2          1 BES505   0.0000
    21 O1          14.3580    10.0470   -12.7060 O.co2        1 BES505   0.0000
    22 O4          13.1680     8.3260   -13.0210 O.co2        1 BES505  -1.0000
    23 H1          12.5944     7.6642    -5.7254 H            1 BES505   0.0000
    24 H2          13.5664     8.4754    -7.4765 H            1 BES505   0.0000
    25 H3          11.6181     6.7297    -8.6858 H            1 BES505   0.0000
    26 H4          12.2706     8.0378    -9.4137 H            1 BES505   0.0000
    27 H5          10.8909     9.9573    -9.5614 H            1 BES505   0.0000
    28 H6          10.2462     7.3756    -6.3839 H            1 BES505   0.0000
    29 H7           9.0462    11.3191    -8.8470 H            1 BES505   0.0000
    30 H8           8.3999     8.7520    -5.6587 H            1 BES505   0.0000
    31 H9           7.8095    10.7104    -6.9071 H            1 BES505   0.0000
    32 H10         13.6408     5.9413    -8.8439 H            1 BES505   0.0000
    33 H11         15.3767     5.2228    -7.9407 H            1 BES505   0.0000
    34 H12         14.0928     6.3915   -11.1609 H            1 BES505   0.0000
    35 H13         15.8777     8.6375   -11.5160 H            1 BES505   0.0000
    36 H14         15.2401     6.5386   -13.4432 H            1 BES505   0.0000
    37 H15         16.5323     6.4573   -12.4481 H            1 BES505   0.0000
    38 H16         16.1600     8.5795   -14.3682 H            1 BES505   0.0000
    39 H17         18.4189     9.0792   -13.9320 H            1 BES505   0.0000
    40 H18         17.5520     9.1644   -12.5508 H            1 BES505   0.0000
    41 H19         18.4846     7.8578   -12.8501 H            1 BES505   0.0000
    42 H20         17.8074     7.4371   -15.6948 H            1 BES505   0.0000
    43 H21         17.8377     6.2232   -14.6030 H            1 BES505   0.0000
    44 H22         16.4927     6.4905   -15.4897 H            1 BES505   0.0000
    45 H23         12.1371     6.3010    -6.4995 H            1 BES505   0.0000
@<TRIPOS>BOND
     1    1    2       1
     2    2    3       1
     3    2   10       1
     4    3    4       1
     5    4    5      ar
     6    4    6      ar
     7    5    7      ar
     8    6    8      ar
     9    7    9      ar
    10    8    9      ar
    11   10   11       1
    12   10   12       1
    13   12   13       2
    14   12   14      am
    15   14   15       1
    16   15   16       1
    17   15   20       1
    18   16   17       1
    19   17   18       1
    20   17   19       1
    21   20   21      ar
    22   20   22      ar
    23    1   45       1
    24    1   23       1
    25    2   24       1
    26    3   25       1
    27    3   26       1
    28    5   27       1
    29    6   28       1
    30    7   29       1
    31    8   30       1
    32    9   31       1
    33   10   32       1
    34   11   33       1
    35   14   34       1
    36   15   35       1
    37   16   36       1
    38   16   37       1
    39   17   38       1
    40   18   39       1
    41   18   40       1
    42   18   41       1
    43   19   42       1
    44   19   43       1
    45   19   44       1
@<TRIPOS>SUBSTRUCTURE
     1 BES505      1 GROUP             4 F     BES     0 **** BES F 505
