@<TRIPOS>MOLECULE
5ce3_ATP_3_ligand
   43    45     1     0     0
SMALL
NO_CHARGES


@<TRIPOS>ATOM
     1 PG         100.2180   -29.7140    47.0090 P.3          1 ATP401   0.0000
     2 O1G        100.6000   -28.4800    46.2330 O.co2        1 ATP401   0.0000
     3 O2G         98.7280   -29.9510    47.1020 O.co2        1 ATP401  -1.0000
     4 O3G        101.0100   -30.9490    46.6260 O.co2        1 ATP401  -1.0000
     5 PB         101.8320   -29.9400    49.4390 P.3          1 ATP401   0.0000
     6 O1B        102.9540   -30.4430    48.5700 O.co2        1 ATP401   0.0000
     7 O2B        102.1030   -28.9580    50.5470 O.co2        1 ATP401  -1.0000
     8 O3B        100.6280   -29.3260    48.5360 O.3          1 ATP401   0.0000
     9 PA         102.1390   -32.3200    50.8440 P.3          1 ATP401   0.0000
    10 O1A        102.4010   -33.4200    49.8400 O.co2        1 ATP401   0.0000
    11 O2A        103.2820   -31.6210    51.5410 O.co2        1 ATP401  -1.0000
    12 O3A        101.1990   -31.2310    50.1360 O.3          1 ATP401   0.0000
    13 O5'        101.1430   -32.9140    51.9630 O.3          1 ATP401   0.0000
    14 C5'        100.6180   -32.0730    52.9930 C.3          1 ATP401   0.0000
    15 C4'         99.1650   -32.4340    53.2660 C.3          1 ATP401   0.0000
    16 O4'         99.0970   -33.8160    53.5970 O.3          1 ATP401   0.0000
    17 C3'         98.5900   -31.6610    54.4490 C.3          1 ATP401   0.0000
    18 O3'         97.2260   -31.3340    54.1820 O.3          1 ATP401   0.0000
    19 C2'         98.6950   -32.6300    55.6050 C.3          1 ATP401   0.0000
    20 O2'         97.6840   -32.5110    56.6070 O.3          1 ATP401   0.0000
    21 C1'         98.5270   -33.9550    54.9010 C.3          1 ATP401   0.0000
    22 N9          99.1610   -35.0360    55.6820 N.pl3        1 ATP401   0.0000
    23 C8         100.4360   -35.1210    56.1030 C.2          1 ATP401   0.0000
    24 N7         100.6350   -36.2780    56.7940 N.2          1 ATP401   0.0000
    25 C5          99.4730   -36.9450    56.8080 C.ar         1 ATP401   0.0000
    26 C6          98.9620   -38.2140    57.3550 C.ar         1 ATP401   0.0000
    27 N6          99.7420   -39.0580    58.0390 N.pl3        1 ATP401   0.0000
    28 N1          97.6800   -38.5300    57.1410 N.ar         1 ATP401   0.0000
    29 C2          96.8590   -37.7260    56.4580 C.ar         1 ATP401   0.0000
    30 N3          97.2400   -36.5480    55.9330 N.ar         1 ATP401   0.0000
    31 C4          98.5100   -36.1140    56.0780 C.ar         1 ATP401   0.0000
    32 H5'1       100.6733   -31.1180    52.7016 H            1 ATP401   0.0000
    33 H5'2       101.1533   -32.1982    53.8283 H            1 ATP401   0.0000
    34 H4'         98.6155   -32.2565    52.4496 H            1 ATP401   0.0000
    35 H3'         99.1250   -30.8353    54.6278 H            1 ATP401   0.0000
    36 H5          97.1129   -30.3405    54.1938 H            1 ATP401   0.0000
    37 H2'         99.6023   -32.5732    56.0217 H            1 ATP401   0.0000
    38 H7          98.0577   -32.7881    57.4922 H            1 ATP401   0.0000
    39 H1'         97.5508   -34.1515    54.8087 H            1 ATP401   0.0000
    40 H9         101.1395   -34.4311    55.9325 H            1 ATP401   0.0000
    41 H10         99.3625   -39.9113    58.3965 H            1 ATP401   0.0000
    42 H11        100.7048   -38.8358    58.1929 H            1 ATP401   0.0000
    43 H12         95.9105   -38.0161    56.3306 H            1 ATP401   0.0000
@<TRIPOS>BOND
     1    1    2      ar
     2    1    3      ar
     3    1    4      ar
     4    1    8       1
     5    5    6      ar
     6    5    7      ar
     7    5    8       1
     8    5   12       1
     9    9   10      ar
    10    9   11      ar
    11    9   12       1
    12    9   13       1
    13   13   14       1
    14   14   15       1
    15   15   16       1
    16   15   17       1
    17   16   21       1
    18   17   18       1
    19   17   19       1
    20   19   20       1
    21   19   21       1
    22   21   22       1
    23   22   23       1
    24   22   31       1
    25   23   24       2
    26   24   25       1
    27   25   26      ar
    28   25   31      ar
    29   26   27       1
    30   26   28      ar
    31   28   29      ar
    32   29   30      ar
    33   30   31      ar
    34   29   43       1
    35   27   42       1
    36   27   41       1
    37   23   40       1
    38   14   32       1
    39   14   33       1
    40   15   34       1
    41   17   35       1
    42   18   36       1
    43   19   37       1
    44   20   38       1
    45   21   39       1
@<TRIPOS>SUBSTRUCTURE
     1 ATP401      1 GROUP             4 C     ATP     0 **** ATP C 401
