@<TRIPOS>MOLECULE
1ml7_PYZ_1_ligand
    9     9     1     0     0
SMALL
NO_CHARGES


@<TRIPOS>ATOM
     1 N1          11.1830    19.1570    34.7450 N.2          1 PYZ186   0.0000
     2 N2          10.1390    18.5500    34.1480 N.pl3        1 PYZ186   0.0000
     3 C3          10.4680    17.8720    33.0500 C.2          1 PYZ186   0.0000
     4 C4          11.8290    18.0350    32.8870 C.2          1 PYZ186   0.0000
     5 I4          12.9550    17.2610    31.3810 I            1 PYZ186   0.0000
     6 C5          12.2220    18.8550    33.9770 C.2          1 PYZ186   0.0000
     7 H1           9.8519    17.3490    32.4610 H            1 PYZ186   0.0000
     8 H2          13.1582    19.1642    34.1440 H            1 PYZ186   0.0000
     9 H3           9.2034    18.6036    34.4971 H            1 PYZ186   0.0000
@<TRIPOS>BOND
     1    1    2       1
     2    1    6       2
     3    2    3       1
     4    3    4       2
     5    4    5       1
     6    4    6       1
     7    6    8       1
     8    3    7       1
     9    2    9       1
@<TRIPOS>SUBSTRUCTURE
     1 PYZ186      1 GROUP             4 A     PYZ     0 **** PYZ A 186
