@<TRIPOS>MOLECULE
3mk6_ACO_3_ligand
   85    87     1     0     0
SMALL
NO_CHARGES


@<TRIPOS>ATOM
     1 N1A        -15.9370   -42.4330     9.6250 N.ar         1 ACO1903   0.0000
     2 C2A        -15.4350   -42.8670     8.4370 C.ar         1 ACO1903   0.0000
     3 N3A        -15.9040   -42.3820     7.2660 N.ar         1 ACO1903   0.0000
     4 C4A        -16.8930   -41.4350     7.2730 C.ar         1 ACO1903   0.0000
     5 C5A        -17.4210   -40.9850     8.4930 C.ar         1 ACO1903   0.0000
     6 C6A        -16.9220   -41.5000     9.6810 C.ar         1 ACO1903   0.0000
     7 N6A        -17.4400   -41.0740    10.8670 N.pl3        1 ACO1903   0.0000
     8 N7A        -18.3790   -40.0770     8.2240 N.2          1 ACO1903   0.0000
     9 C8A        -18.4510   -39.9610     6.8750 C.2          1 ACO1903   0.0000
    10 N9A        -17.5510   -40.7900     6.2980 N.pl3        1 ACO1903   0.0000
    11 C1B        -17.3290   -40.9630     4.8310 C.3          1 ACO1903   0.0000
    12 C2B        -18.6400   -41.2180     4.0900 C.3          1 ACO1903   0.0000
    13 O2B        -19.1210   -42.5870     4.1310 O.3          1 ACO1903   0.0000
    14 C3B        -18.3070   -40.7100     2.6890 C.3          1 ACO1903   0.0000
    15 O3B        -17.5310   -41.6690     1.9680 O.3          1 ACO1903   0.0000
    16 P3B        -17.4520   -41.7830     0.3530 P.3          1 ACO1903   0.0000
    17 O7A        -16.9790   -40.4480    -0.2010 O.co2        1 ACO1903   0.0000
    18 O8A        -16.4040   -42.8660     0.2100 O.co2        1 ACO1903  -1.0000
    19 O9A        -18.8480   -42.1620    -0.0520 O.co2        1 ACO1903  -1.0000
    20 C4B        -17.3930   -39.5230     2.9530 C.3          1 ACO1903   0.0000
    21 O4B        -16.8090   -39.7560     4.2390 O.3          1 ACO1903   0.0000
    22 C5B        -18.1590   -38.2000     2.9310 C.3          1 ACO1903   0.0000
    23 O5B        -19.0060   -38.1020     4.0840 O.3          1 ACO1903   0.0000
    24 P1A        -19.4610   -36.6360     4.5990 P.3          1 ACO1903   0.0000
    25 O1A        -20.0390   -35.9460     3.3960 O.co2        1 ACO1903   0.0000
    26 O2A        -20.3330   -36.8920     5.7860 O.co2        1 ACO1903  -1.0000
    27 O3A        -18.0550   -36.0780     5.1330 O.3          1 ACO1903   0.0000
    28 P2A        -17.2260   -34.8260     4.5670 P.3          1 ACO1903   0.0000
    29 O4A        -18.0920   -33.5920     4.6710 O.co2        1 ACO1903   0.0000
    30 O5A        -16.5860   -35.1020     3.2400 O.co2        1 ACO1903  -1.0000
    31 O6A        -16.0070   -34.8170     5.6130 O.3          1 ACO1903   0.0000
    32 CBP        -15.1960   -33.1110     7.1190 C.3          1 ACO1903   0.0000
    33 CCP        -16.2110   -34.2490     6.9130 C.3          1 ACO1903   0.0000
    34 CDP        -15.3480   -32.5360     8.5290 C.3          1 ACO1903   0.0000
    35 CEP        -13.7880   -33.6700     6.9750 C.3          1 ACO1903   0.0000
    36 CAP        -15.4670   -32.0030     6.0550 C.3          1 ACO1903   0.0000
    37 OAP        -16.8630   -31.6800     6.0500 O.3          1 ACO1903   0.0000
    38 C9P        -14.6570   -30.7400     6.2370 C.2          1 ACO1903   0.0000
    39 O9P        -13.4310   -30.7900     6.2310 O.2          1 ACO1903   0.0000
    40 N8P        -15.3240   -29.6050     6.3840 N.am         1 ACO1903   0.0000
    41 C7P        -14.7470   -28.2830     6.5520 C.3          1 ACO1903   0.0000
    42 C6P        -14.3400   -28.1720     8.0130 C.3          1 ACO1903   0.0000
    43 C5P        -13.6990   -26.8310     8.2430 C.2          1 ACO1903   0.0000
    44 O5P        -12.6120   -26.5640     7.7370 O.2          1 ACO1903   0.0000
    45 N4P        -14.3960   -25.9990     9.0150 N.am         1 ACO1903   0.0000
    46 C3P        -14.0200   -24.6470     9.4030 C.3          1 ACO1903   0.0000
    47 C2P        -15.2910   -23.8010     9.2650 C.3          1 ACO1903   0.0000
    48 S1P        -14.9390   -22.1740     9.8490 S.3          1 ACO1903   0.0000
    49 C          -15.3220   -22.3960    11.5590 C.2          1 ACO1903   0.0000
    50 O          -16.0690   -23.5400    11.9110 O.2          1 ACO1903   0.0000
    51 CH3        -14.8870   -21.3890    12.6180 C.3          1 ACO1903   0.0000
    52 H2A        -14.7088   -43.5545     8.4303 H            1 ACO1903   0.0000
    53 H6A1       -18.1651   -40.3854    10.8774 H            1 ACO1903   0.0000
    54 H6A2       -17.0951   -41.4499    11.7271 H            1 ACO1903   0.0000
    55 H8A        -19.0747   -39.3547     6.3815 H            1 ACO1903   0.0000
    56 H1B        -16.6956   -41.7200     4.6705 H            1 ACO1903   0.0000
    57 H2B        -19.3437   -40.6249     4.4813 H            1 ACO1903   0.0000
    58 H7         -20.0228   -42.6107     4.5624 H            1 ACO1903   0.0000
    59 H3B        -19.1284   -40.4421     2.1856 H            1 ACO1903   0.0000
    60 H4B        -16.6717   -39.4998     2.2608 H            1 ACO1903   0.0000
    61 H5B1       -18.7196   -38.1560     2.1041 H            1 ACO1903   0.0000
    62 H5B2       -17.5081   -37.4408     2.9332 H            1 ACO1903   0.0000
    63 HCP1       -16.0757   -34.9512     7.6120 H            1 ACO1903   0.0000
    64 HCP2       -17.1407   -33.8869     6.9799 H            1 ACO1903   0.0000
    65 HDP1       -14.6875   -31.7968     8.6605 H            1 ACO1903   0.0000
    66 HDP2       -16.2750   -32.1794     8.6454 H            1 ACO1903   0.0000
    67 HDP3       -15.1808   -33.2561     9.2024 H            1 ACO1903   0.0000
    68 HEP1       -13.1225   -32.9355     7.1077 H            1 ACO1903   0.0000
    69 HEP2       -13.6401   -34.3818     7.6616 H            1 ACO1903   0.0000
    70 HEP3       -13.6761   -34.0600     6.0610 H            1 ACO1903   0.0000
    71 HAP        -15.2402   -32.3821     5.1579 H            1 ACO1903   0.0000
    72 H21        -17.3389   -32.2684     5.3964 H            1 ACO1903   0.0000
    73 H8P        -16.3222   -29.6643     6.3788 H            1 ACO1903   0.0000
    74 H7P1       -15.4220   -27.5803     6.3271 H            1 ACO1903   0.0000
    75 H7P2       -13.9468   -28.1777     5.9615 H            1 ACO1903   0.0000
    76 H6P1       -13.6886   -28.8974     8.2355 H            1 ACO1903   0.0000
    77 H6P2       -15.1491   -28.2608     8.5940 H            1 ACO1903   0.0000
    78 H4P        -15.2691   -26.3385     9.3648 H            1 ACO1903   0.0000
    79 H3P1       -13.3031   -24.2986     8.7992 H            1 ACO1903   0.0000
    80 H3P2       -13.6947   -24.6343    10.3485 H            1 ACO1903   0.0000
    81 H2P1       -16.0264   -24.2041     9.8097 H            1 ACO1903   0.0000
    82 H2P2       -15.5694   -23.7630     8.3053 H            1 ACO1903   0.0000
    83 HH31       -15.1996   -21.6950    13.5173 H            1 ACO1903   0.0000
    84 HH32       -13.8897   -21.3160    12.6188 H            1 ACO1903   0.0000
    85 HH33       -15.2865   -20.4956    12.4125 H            1 ACO1903   0.0000
@<TRIPOS>BOND
     1    1    2      ar
     2    1    6      ar
     3    2    3      ar
     4    3    4      ar
     5    4    5      ar
     6    4   10       1
     7    5    6      ar
     8    5    8       1
     9    6    7       1
    10    8    9       2
    11    9   10       1
    12   10   11       1
    13   11   12       1
    14   11   21       1
    15   12   13       1
    16   12   14       1
    17   14   15       1
    18   14   20       1
    19   15   16       1
    20   16   17      ar
    21   16   18      ar
    22   16   19      ar
    23   20   21       1
    24   20   22       1
    25   22   23       1
    26   23   24       1
    27   24   25      ar
    28   24   26      ar
    29   24   27       1
    30   27   28       1
    31   28   29      ar
    32   28   30      ar
    33   28   31       1
    34   31   33       1
    35   32   33       1
    36   32   34       1
    37   32   35       1
    38   32   36       1
    39   36   37       1
    40   36   38       1
    41   38   39       2
    42   38   40      am
    43   40   41       1
    44   41   42       1
    45   42   43       1
    46   43   44       2
    47   43   45      am
    48   45   46       1
    49   46   47       1
    50   47   48       1
    51   48   49       1
    52   49   50       2
    53   49   51       1
    54    2   52       1
    55    7   53       1
    56    7   54       1
    57    9   55       1
    58   11   56       1
    59   12   57       1
    60   13   58       1
    61   14   59       1
    62   51   85       1
    63   51   84       1
    64   20   60       1
    65   22   61       1
    66   22   62       1
    67   51   83       1
    68   47   82       1
    69   33   63       1
    70   33   64       1
    71   34   65       1
    72   34   66       1
    73   34   67       1
    74   35   68       1
    75   35   69       1
    76   35   70       1
    77   36   71       1
    78   37   72       1
    79   40   73       1
    80   41   74       1
    81   41   75       1
    82   42   76       1
    83   42   77       1
    84   45   78       1
    85   46   79       1
    86   46   80       1
    87   47   81       1
@<TRIPOS>SUBSTRUCTURE
     1 ACO1903     1 GROUP             4 C     ACO     0 **** ACO C1903
