@<TRIPOS>MOLECULE
3bpt_QUE_1_ligand
   32    34     1     0     0
SMALL
NO_CHARGES


@<TRIPOS>ATOM
     1 C1          43.4970    -0.0470    16.1950 C.ar         1 QUE501   0.0000
     2 C2          42.5060     0.0450    15.2200 C.ar         1 QUE501   0.0000
     3 C3          42.9240     0.2080    13.8230 C.ar         1 QUE501   0.0000
     4 C4          44.3720     0.2450    13.5040 C.ar         1 QUE501   0.0000
     5 C5          45.2820     0.1500    14.5410 C.ar         1 QUE501   0.0000
     6 C6          44.8490     0.0010    15.8540 C.ar         1 QUE501   0.0000
     7 C9          41.9410     0.3260    12.7170 C.2          1 QUE501   0.0000
     8 C10         42.4690     0.4810    11.3480 C.2          1 QUE501   0.0000
     9 C11         43.9550     0.4710    11.1010 C.2          1 QUE501   0.0000
    10 C14         44.6420     0.7080     9.7840 C.ar         1 QUE501   0.0000
    11 C15         46.0400     0.8720     9.7570 C.ar         1 QUE501   0.0000
    12 C16         46.7180     1.1290     8.5710 C.ar         1 QUE501   0.0000
    13 C17         46.0330     1.2380     7.3670 C.ar         1 QUE501   0.0000
    14 C18         44.5500     1.0780     7.3920 C.ar         1 QUE501   0.0000
    15 C19         43.9110     0.8220     8.6030 C.ar         1 QUE501   0.0000
    16 O12         44.8080     0.3870    12.2220 O.2          1 QUE501   0.0000
    17 O13         40.6840     0.2740    12.8810 O.2          1 QUE501   0.0000
    18 O23         43.8170     1.1890     6.2520 O.3          1 QUE501   0.0000
    19 O24         46.7140     1.5080     6.2070 O.3          1 QUE501   0.0000
    20 O27         41.5250     0.6100    10.3900 O.3          1 QUE501   0.0000
    21 O29         45.7930    -0.0940    16.8450 O.3          1 QUE501   0.0000
    22 O30         41.1880    -0.0060    15.5340 O.3          1 QUE501   0.0000
    23 H1          43.2350    -0.1491    17.1547 H            1 QUE501   0.0000
    24 H2          46.2617     0.1889    14.3446 H            1 QUE501   0.0000
    25 H3          46.5569     0.8020    10.6102 H            1 QUE501   0.0000
    26 H4          47.7121     1.2369     8.5845 H            1 QUE501   0.0000
    27 H5          42.9166     0.7189     8.6252 H            1 QUE501   0.0000
    28 H6          44.2714     1.3803     5.3820 H            1 QUE501   0.0000
    29 H7          47.7067     1.6271     6.2261 H            1 QUE501   0.0000
    30 H8          40.5562     0.5956    10.6375 H            1 QUE501   0.0000
    31 H9          45.5087    -0.1963    17.7983 H            1 QUE501   0.0000
    32 H10         40.4991     0.0627    14.8124 H            1 QUE501   0.0000
@<TRIPOS>BOND
     1    1    2      ar
     2    1    6      ar
     3    2    3      ar
     4    2   22       1
     5    3    4      ar
     6    3    7       1
     7    4    5      ar
     8    4   16       1
     9    5    6      ar
    10    6   21       1
    11    7    8       1
    12    7   17       2
    13    8    9       2
    14    8   20       1
    15    9   10       1
    16    9   16       1
    17   10   11      ar
    18   10   15      ar
    19   11   12      ar
    20   12   13      ar
    21   13   14      ar
    22   13   19       1
    23   14   15      ar
    24   14   18       1
    25    1   23       1
    26    5   24       1
    27   11   25       1
    28   12   26       1
    29   15   27       1
    30   18   28       1
    31   19   29       1
    32   20   30       1
    33   21   31       1
    34   22   32       1
@<TRIPOS>SUBSTRUCTURE
     1 QUE501      1 GROUP             4 A     QUE     0 **** QUE A 501
