@<TRIPOS>MOLECULE
4j83_SAM_2_ligand
   50    52     1     0     0
SMALL
NO_CHARGES


@<TRIPOS>ATOM
     1 N           54.0120   -20.1110    -6.6850 N.4          1 SAM401   1.0000
     2 CA          52.9030   -19.3350    -6.1270 C.3          1 SAM401   0.0000
     3 C           52.8670   -19.4200    -4.6090 C.2          1 SAM401   0.0000
     4 O           53.7530   -20.0770    -4.0080 O.co2        1 SAM401   0.0000
     5 OXT         51.9060   -18.8780    -3.9720 O.co2        1 SAM401  -1.0000
     6 CB          51.5620   -19.7840    -6.7690 C.3          1 SAM401   0.0000
     7 CG          51.3050   -19.0800    -8.1070 C.3          1 SAM401   0.0000
     8 SD          50.9200   -17.4210    -7.9790 S.3          1 SAM401   1.0000
     9 CE          49.5280   -17.1780    -8.9040 C.3          1 SAM401   0.0000
    10 C5'         52.0070   -16.5390    -8.9400 C.3          1 SAM401   0.0000
    11 C4'         53.4980   -16.5520    -8.5490 C.3          1 SAM401   0.0000
    12 O4'         54.1000   -17.8270    -8.6960 O.3          1 SAM401   0.0000
    13 C3'         54.3550   -15.6400    -9.4330 C.3          1 SAM401   0.0000
    14 O3'         54.3460   -14.3250    -8.8860 O.3          1 SAM401   0.0000
    15 C2'         55.7420   -16.2670    -9.4260 C.3          1 SAM401   0.0000
    16 O2'         56.4280   -15.9600    -8.2030 O.3          1 SAM401   0.0000
    17 C1'         55.4180   -17.7300    -9.2680 C.3          1 SAM401   0.0000
    18 N9          55.4690   -18.4720   -10.5460 N.pl3        1 SAM401   0.0000
    19 C8          54.4150   -18.9680   -11.2240 C.2          1 SAM401   0.0000
    20 N7          54.8280   -19.6630   -12.3230 N.2          1 SAM401   0.0000
    21 C5          56.1830   -19.6080   -12.3360 C.ar         1 SAM401   0.0000
    22 C6          57.2400   -20.1280   -13.2290 C.ar         1 SAM401   0.0000
    23 N6          56.9280   -20.8500   -14.3410 N.pl3        1 SAM401   0.0000
    24 N1          58.5260   -19.8310   -12.9000 N.ar         1 SAM401   0.0000
    25 C2          58.8340   -19.1290   -11.7900 C.ar         1 SAM401   0.0000
    26 N3          57.9260   -18.5970   -10.9470 N.ar         1 SAM401   0.0000
    27 C4          56.5940   -18.8290   -11.1730 C.ar         1 SAM401   0.0000
    28 H1          54.0052   -20.0328    -7.6819 H            1 SAM401   0.0000
    29 H2          54.8776   -19.7589    -6.3289 H            1 SAM401   0.0000
    30 HA          53.0503   -18.3770    -6.3729 H            1 SAM401   0.0000
    31 HB1         50.8144   -19.5677    -6.1410 H            1 SAM401   0.0000
    32 HB2         51.5922   -20.7715    -6.9238 H            1 SAM401   0.0000
    33 HG1         50.5432   -19.5423    -8.5608 H            1 SAM401   0.0000
    34 HG2         52.1287   -19.1661    -8.6674 H            1 SAM401   0.0000
    35 HE1         49.2622   -16.2150    -8.8596 H            1 SAM401   0.0000
    36 HE2         49.7111   -17.4298    -9.8543 H            1 SAM401   0.0000
    37 HE3         48.7865   -17.7453    -8.5458 H            1 SAM401   0.0000
    38 H5'1        51.7058   -15.5855    -8.9300 H            1 SAM401   0.0000
    39 H5'2        51.9409   -16.8997    -9.8703 H            1 SAM401   0.0000
    40 H4'         53.5868   -16.2586    -7.5971 H            1 SAM401   0.0000
    41 H3'         53.9908   -15.6256   -10.3642 H            1 SAM401   0.0000
    42 H15         53.4799   -14.1672    -8.4116 H            1 SAM401   0.0000
    43 H2'         56.2767   -16.0627   -10.2459 H            1 SAM401   0.0000
    44 H17         56.1162   -15.0742    -7.8592 H            1 SAM401   0.0000
    45 H1'         56.0745   -18.1377    -8.6333 H            1 SAM401   0.0000
    46 H19         53.4593   -18.8434   -10.9575 H            1 SAM401   0.0000
    47 H20         57.6558   -21.1942   -14.9341 H            1 SAM401   0.0000
    48 H21         55.9711   -21.0359   -14.5643 H            1 SAM401   0.0000
    49 H22         59.8019   -18.9939   -11.5779 H            1 SAM401   0.0000
    50 H23         53.9107   -21.0714    -6.4253 H            1 SAM401   0.0000
@<TRIPOS>BOND
     1    1    2       1
     2    2    3       1
     3    2    6       1
     4    3    4      ar
     5    3    5      ar
     6    6    7       1
     7    7    8       1
     8    8    9       1
     9    8   10       1
    10   10   11       1
    11   11   12       1
    12   11   13       1
    13   12   17       1
    14   13   14       1
    15   13   15       1
    16   15   16       1
    17   15   17       1
    18   17   18       1
    19   18   19       1
    20   18   27       1
    21   19   20       2
    22   20   21       1
    23   21   22      ar
    24   21   27      ar
    25   22   23       1
    26   22   24      ar
    27   24   25      ar
    28   25   26      ar
    29   26   27      ar
    30    1   28       1
    31    1   29       1
    32    2   30       1
    33    1   50       1
    34    6   31       1
    35    6   32       1
    36    7   33       1
    37    7   34       1
    38    9   35       1
    39    9   36       1
    40    9   37       1
    41   10   38       1
    42   10   39       1
    43   11   40       1
    44   13   41       1
    45   14   42       1
    46   15   43       1
    47   16   44       1
    48   17   45       1
    49   19   46       1
    50   23   47       1
    51   23   48       1
    52   25   49       1
@<TRIPOS>SUBSTRUCTURE
     1 SAM401      1 GROUP             4 A     SAM     0 **** SAM A 401
