@<TRIPOS>MOLECULE
3ztx_ZTX_1_ligand
   58    62     1     0     0
SMALL
NO_CHARGES


@<TRIPOS>ATOM
     1 N1          12.3520     3.0060     5.9460 N.ar         1 ZTX1357   0.0000
     2 C2          12.0970     1.8520     5.2710 C.ar         1 ZTX1357   0.0000
     3 N3          10.8650     1.5830     4.7750 N.ar         1 ZTX1357   0.0000
     4 C4           9.8630     2.4530     4.9120 C.ar         1 ZTX1357   0.0000
     5 C5          10.1040     3.6330     5.6180 C.ar         1 ZTX1357   0.0000
     6 C6          11.3780     3.8900     6.1410 C.ar         1 ZTX1357   0.0000
     7 OAA          7.1050     5.3120     6.3280 O.2          1 ZTX1357   0.0000
     8 CAB          7.8560     4.3480     6.1110 C.2          1 ZTX1357   0.0000
     9 CAC          7.2290     2.9410     6.1050 C.ar         1 ZTX1357   0.0000
    10 CAD          7.6370     1.8960     5.2620 C.ar         1 ZTX1357   0.0000
    11 NAE          8.6930     1.9960     4.4040 N.pl3        1 ZTX1357   0.0000
    12 CAF          8.6050     1.4480     3.0320 C.3          1 ZTX1357   0.0000
    13 CAH          5.9370     0.4450     6.2400 C.ar         1 ZTX1357   0.0000
    14 CAI          5.5210     1.4870     7.0770 C.ar         1 ZTX1357   0.0000
    15 CAK          6.1550     2.7560     7.0080 C.ar         1 ZTX1357   0.0000
    16 CAL          6.9930     0.6340     5.3360 C.ar         1 ZTX1357   0.0000
    17 NAN         13.0720     0.9500     5.1330 N.pl3        1 ZTX1357   0.0000
    18 CAO         13.2090    -0.0990     4.3330 C.ar         1 ZTX1357   0.0000
    19 CAP         12.2440    -0.7450     3.5370 C.ar         1 ZTX1357   0.0000
    20 CAQ         12.6230    -1.8420     2.7530 C.ar         1 ZTX1357   0.0000
    21 CAR         13.9650    -2.2830     2.8040 C.ar         1 ZTX1357   0.0000
    22 NAS         14.5120    -3.3540     2.0860 N.pl3        1 ZTX1357   0.0000
    23 CAT         14.9700    -4.5990     2.8000 C.3          1 ZTX1357   0.0000
    24 CAU         14.6620    -5.8490     1.9520 C.3          1 ZTX1357   0.0000
    25 CAV         14.9940    -5.6520     0.4480 C.3          1 ZTX1357   0.0000
    26 OAW         14.5210    -6.7770    -0.2940 O.3          1 ZTX1357   0.0000
    27 CAX         14.3210    -4.3890    -0.1240 C.3          1 ZTX1357   0.0000
    28 CAY         14.7910    -3.1540     0.6410 C.3          1 ZTX1357   0.0000
    29 CAZ         14.8930    -1.6420     3.5980 C.ar         1 ZTX1357   0.0000
    30 CBA         14.5050    -0.5600     4.3460 C.ar         1 ZTX1357   0.0000
    31 NBG          9.1890     4.5860     5.8680 N.am         1 ZTX1357   0.0000
    32 CBH          9.6660     5.9870     5.9020 C.3          1 ZTX1357   0.0000
    33 H1          11.5531     4.7294     6.6555 H            1 ZTX1357   0.0000
    34 HAF1         7.6639     1.1659     2.8455 H            1 ZTX1357   0.0000
    35 HAF2         8.8792     2.1498     2.3745 H            1 ZTX1357   0.0000
    36 HAF3         9.2124     0.6580     2.9490 H            1 ZTX1357   0.0000
    37 HAH          5.4774    -0.4419     6.2868 H            1 ZTX1357   0.0000
    38 HAI          4.7749     1.3374     7.7258 H            1 ZTX1357   0.0000
    39 HAK          5.8467     3.5087     7.5897 H            1 ZTX1357   0.0000
    40 HAL          7.2904    -0.1171     4.7466 H            1 ZTX1357   0.0000
    41 HAN         13.8459     1.0925     5.7501 H            1 ZTX1357   0.0000
    42 HAP         11.2970    -0.4237     3.5314 H            1 ZTX1357   0.0000
    43 HAQ         11.9567    -2.3046     2.1681 H            1 ZTX1357   0.0000
    44 HAT1        14.4940    -4.6701     3.6766 H            1 ZTX1357   0.0000
    45 HAT2        15.9557    -4.5437     2.9594 H            1 ZTX1357   0.0000
    46 HAU1        13.6890    -6.0625     2.0392 H            1 ZTX1357   0.0000
    47 HAU2        15.2036    -6.6136     2.3014 H            1 ZTX1357   0.0000
    48 HAV         15.9849    -5.5767     0.3364 H            1 ZTX1357   0.0000
    49 HAW         14.7344    -6.6509    -1.2628 H            1 ZTX1357   0.0000
    50 HAX1        13.3285    -4.4745    -0.0369 H            1 ZTX1357   0.0000
    51 HAX2        14.5639    -4.2928    -1.0893 H            1 ZTX1357   0.0000
    52 HAY1        15.7730    -3.0259     0.5025 H            1 ZTX1357   0.0000
    53 HAY2        14.3000    -2.3474     0.3120 H            1 ZTX1357   0.0000
    54 HAZ         15.8396    -1.9631     3.6279 H            1 ZTX1357   0.0000
    55 HBA         15.1819    -0.0940     4.9158 H            1 ZTX1357   0.0000
    56 HBH1         8.8971     6.5963     6.0955 H            1 ZTX1357   0.0000
    57 HBH2        10.3581     6.0862     6.6170 H            1 ZTX1357   0.0000
    58 HBH3        10.0651     6.2248     5.0165 H            1 ZTX1357   0.0000
@<TRIPOS>BOND
     1    1    2      ar
     2    1    6      ar
     3    2    3      ar
     4    2   17       1
     5    3    4      ar
     6    4    5      ar
     7    4   11       1
     8    5    6      ar
     9    5   31       1
    10    7    8       2
    11    8    9       1
    12    8   31      am
    13    9   10      ar
    14    9   15      ar
    15   10   11       1
    16   10   16      ar
    17   11   12       1
    18   13   14      ar
    19   13   16      ar
    20   14   15      ar
    21   17   18       1
    22   18   19      ar
    23   18   30      ar
    24   19   20      ar
    25   20   21      ar
    26   21   22       1
    27   21   29      ar
    28   22   23       1
    29   22   28       1
    30   23   24       1
    31   24   25       1
    32   25   26       1
    33   25   27       1
    34   27   28       1
    35   29   30      ar
    36   31   32       1
    37    6   33       1
    38   12   34       1
    39   12   35       1
    40   12   36       1
    41   13   37       1
    42   14   38       1
    43   15   39       1
    44   16   40       1
    45   17   41       1
    46   19   42       1
    47   20   43       1
    48   23   44       1
    49   23   45       1
    50   24   46       1
    51   24   47       1
    52   25   48       1
    53   26   49       1
    54   27   50       1
    55   27   51       1
    56   28   52       1
    57   28   53       1
    58   29   54       1
    59   30   55       1
    60   32   56       1
    61   32   57       1
    62   32   58       1
@<TRIPOS>SUBSTRUCTURE
     1 ZTX1357     1 GROUP             4 A     ZTX     0 **** ZTX A1357
