@<TRIPOS>MOLECULE
2cen_4AH_1_ligand
   95    99     1     0     0
SMALL
NO_CHARGES


@<TRIPOS>ATOM
     1 C1          14.3070    22.9110     5.6430 C.3          1 4AH1200   0.0000
     2 C2          14.5790    21.3770     5.3860 C.2          1 4AH1200   0.0000
     3 O3          13.6330    20.5620     5.4030 O.2          1 4AH1200   0.0000
     4 N4          15.8330    20.9260     5.1890 N.am         1 4AH1200   0.0000
     5 C5          16.1290    19.4960     4.9900 C.3          1 4AH1200   0.0000
     6 C6          16.0890    18.9950     3.5740 C.ar         1 4AH1200   0.0000
     7 C7          15.2500    19.4110     2.4890 C.ar         1 4AH1200   0.0000
     8 C8          15.4250    18.7590     1.2180 C.ar         1 4AH1200   0.0000
     9 C9          16.4120    17.7250     1.0620 C.ar         1 4AH1200   0.0000
    10 C10         17.2390    17.3220     2.1630 C.ar         1 4AH1200   0.0000
    11 C11         17.0540    17.9780     3.4120 C.ar         1 4AH1200   0.0000
    12 C12         17.7990    17.7320     4.7040 C.3          1 4AH1200   0.0000
    13 C13         17.5230    19.0220     5.5170 C.3          1 4AH1200   0.0000
    14 O14         18.5730    19.9140     5.1680 O.3          1 4AH1200   0.0000
    15 C24         14.1110    23.1820     7.1760 C.3          1 4AH1200   0.0000
    16 C25         14.9730    22.3470     8.1180 C.ar         1 4AH1200   0.0000
    17 C26         14.3750    21.2800     8.8770 C.ar         1 4AH1200   0.0000
    18 C27         15.1730    20.4770     9.7450 C.ar         1 4AH1200   0.0000
    19 C28         16.5770    20.7350     9.8590 C.ar         1 4AH1200   0.0000
    20 C29         17.1780    21.7980     9.1060 C.ar         1 4AH1200   0.0000
    21 C30         16.3810    22.6040     8.2360 C.ar         1 4AH1200   0.0000
    22 O36         15.4120    23.7170     5.2220 O.3          1 4AH1200   0.0000
    23 C41         13.0310    22.9480     4.7450 C.3          1 4AH1200   0.0000
    24 N42         12.0780    23.9550     4.3850 N.3          1 4AH1200   0.0000
    25 N43         11.4140    24.7110     5.3210 N.am         1 4AH1200   0.0000
    26 C44         11.5480    23.4280     3.1080 C.3          1 4AH1200   0.0000
    27 C45         10.5400    24.4360     6.3090 C.2          1 4AH1200   0.0000
    28 O46         10.3620    23.2950     6.7660 O.2          1 4AH1200   0.0000
    29 C47          9.7620    25.6600     6.8290 C.3          1 4AH1200   0.0000
    30 C48          9.6900    25.9050     8.3760 C.3          1 4AH1200   0.0000
    31 C49          8.9260    27.2100     8.7310 C.3          1 4AH1200   0.0000
    32 C50         11.0770    26.0020     9.0310 C.3          1 4AH1200   0.0000
    33 N51          8.3920    25.5860     6.2930 N.am         1 4AH1200   0.0000
    34 C54          7.8210    26.4840     5.4740 C.2          1 4AH1200   0.0000
    35 O55          8.4670    27.4840     5.1070 O.2          1 4AH1200   0.0000
    36 O56          6.5440    26.2540     5.0890 O.3          1 4AH1200   0.0000
    37 C78         10.0340    23.4700     2.9970 C.ar         1 4AH1200   0.0000
    38 C79          9.4220    24.4510     2.1580 C.ar         1 4AH1200   0.0000
    39 C80          7.9990    24.5180     2.0510 C.ar         1 4AH1200   0.0000
    40 C81          7.1660    23.6030     2.7910 C.ar         1 4AH1200   0.0000
    41 C82          9.2150    22.5500     3.7300 C.ar         1 4AH1200   0.0000
    42 C83          7.7910    22.6170     3.6320 C.ar         1 4AH1200   0.0000
    43 C91          5.8550    27.1580     4.2320 C.3          1 4AH1200   0.0000
    44 C92          8.9130    24.7670     9.0460 C.3          1 4AH1200   0.0000
    45 C93          3.4210    22.8550     3.3400 C.ar         1 4AH1200   0.0000
    46 C94          4.8410    22.7860     3.4320 C.ar         1 4AH1200   0.0000
    47 C95          5.6770    23.6820     2.6840 C.ar         1 4AH1200   0.0000
    48 C96          5.0560    24.6540     1.8370 C.ar         1 4AH1200   0.0000
    49 N97          3.6370    24.7180     1.7470 N.ar         1 4AH1200   0.0000
    50 C98          2.8160    23.8240     2.4950 C.ar         1 4AH1200   0.0000
    51 H1          16.5872    21.5825     5.1774 H            1 4AH1200   0.0000
    52 H2          15.4372    18.9833     5.4985 H            1 4AH1200   0.0000
    53 H3          14.5660    20.1302     2.6110 H            1 4AH1200   0.0000
    54 H4          14.8573    19.0264     0.4394 H            1 4AH1200   0.0000
    55 H5          16.5236    17.2804     0.1733 H            1 4AH1200   0.0000
    56 H6          17.9246    16.6019     2.0558 H            1 4AH1200   0.0000
    57 H7          18.7780    17.6147     4.5375 H            1 4AH1200   0.0000
    58 H8          17.4423    16.9261     5.1766 H            1 4AH1200   0.0000
    59 H9          17.5038    18.8414     6.5004 H            1 4AH1200   0.0000
    60 H10         18.2125    20.8446     5.1044 H            1 4AH1200   0.0000
    61 H11         13.1527    23.0027     7.3984 H            1 4AH1200   0.0000
    62 H12         14.3178    24.1456     7.3453 H            1 4AH1200   0.0000
    63 H13         13.3946    21.1007     8.7953 H            1 4AH1200   0.0000
    64 H14         14.7539    19.7373    10.2715 H            1 4AH1200   0.0000
    65 H15         17.1399    20.1728    10.4649 H            1 4AH1200   0.0000
    66 H16         18.1585    21.9756     9.1903 H            1 4AH1200   0.0000
    67 H17         16.8019    23.3440     7.7114 H            1 4AH1200   0.0000
    68 H18         15.4613    24.5382     5.7905 H            1 4AH1200   0.0000
    69 H19         12.4576    22.2330     5.1451 H            1 4AH1200   0.0000
    70 H20         13.3755    22.6415     3.8577 H            1 4AH1200   0.0000
    71 H21         11.6278    25.6856     5.2536 H            1 4AH1200   0.0000
    72 H22         11.8429    22.4770     3.0148 H            1 4AH1200   0.0000
    73 H23         11.9323    23.9709     2.3612 H            1 4AH1200   0.0000
    74 H24         10.1891    26.4693     6.4257 H            1 4AH1200   0.0000
    75 H25          8.9054    27.3245     9.7242 H            1 4AH1200   0.0000
    76 H26          9.3904    27.9918     8.3149 H            1 4AH1200   0.0000
    77 H27          7.9904    27.1538     8.3824 H            1 4AH1200   0.0000
    78 H28         10.9717    26.1578    10.0132 H            1 4AH1200   0.0000
    79 H29         11.5771    25.1492     8.8806 H            1 4AH1200   0.0000
    80 H30         11.5847    26.7621     8.6255 H            1 4AH1200   0.0000
    81 H31          7.8386    24.7979     6.5627 H            1 4AH1200   0.0000
    82 H32          9.9914    25.0927     1.6441 H            1 4AH1200   0.0000
    83 H33          7.5776    25.2046     1.4585 H            1 4AH1200   0.0000
    84 H34          9.6420    21.8583     4.3125 H            1 4AH1200   0.0000
    85 H35          7.2260    21.9753     4.1506 H            1 4AH1200   0.0000
    86 H36          4.9300    26.8176     4.0629 H            1 4AH1200   0.0000
    87 H37          5.8050    28.0571     4.6669 H            1 4AH1200   0.0000
    88 H38          6.3459    27.2344     3.3642 H            1 4AH1200   0.0000
    89 H39          8.8700    24.9280    10.0320 H            1 4AH1200   0.0000
    90 H40          7.9857    24.7319     8.6733 H            1 4AH1200   0.0000
    91 H41          9.3761    23.8984     8.8700 H            1 4AH1200   0.0000
    92 H42          2.8524    22.2241     3.8679 H            1 4AH1200   0.0000
    93 H43          5.2625    22.1021     4.0275 H            1 4AH1200   0.0000
    94 H44          5.6194    25.2887     1.3080 H            1 4AH1200   0.0000
    95 H45          1.8199    23.8786     2.4253 H            1 4AH1200   0.0000
@<TRIPOS>BOND
     1    1    2       1
     2    1   15       1
     3    1   22       1
     4    1   23       1
     5    2    3       2
     6    2    4      am
     7    4    5       1
     8    5    6       1
     9    5   13       1
    10    6    7      ar
    11    6   11      ar
    12    7    8      ar
    13    8    9      ar
    14    9   10      ar
    15   10   11      ar
    16   11   12       1
    17   12   13       1
    18   13   14       1
    19   15   16       1
    20   16   17      ar
    21   16   21      ar
    22   17   18      ar
    23   18   19      ar
    24   19   20      ar
    25   20   21      ar
    26   23   24       1
    27   24   25       1
    28   24   26       1
    29   25   27      am
    30   26   37       1
    31   27   28       2
    32   27   29       1
    33   29   30       1
    34   29   33       1
    35   30   31       1
    36   30   32       1
    37   30   44       1
    38   33   34      am
    39   34   35       2
    40   34   36       1
    41   36   43       1
    42   37   38      ar
    43   37   41      ar
    44   38   39      ar
    45   39   40      ar
    46   40   42      ar
    47   40   47       1
    48   41   42      ar
    49   45   46      ar
    50   45   50      ar
    51   46   47      ar
    52   47   48      ar
    53   48   49      ar
    54   49   50      ar
    55    4   51       1
    56    5   52       1
    57    7   53       1
    58    8   54       1
    59    9   55       1
    60   10   56       1
    61   12   57       1
    62   12   58       1
    63   13   59       1
    64   14   60       1
    65   15   61       1
    66   15   62       1
    67   17   63       1
    68   18   64       1
    69   19   65       1
    70   20   66       1
    71   21   67       1
    72   22   68       1
    73   23   69       1
    74   23   70       1
    75   25   71       1
    76   26   72       1
    77   26   73       1
    78   29   74       1
    79   31   75       1
    80   31   76       1
    81   31   77       1
    82   32   78       1
    83   32   79       1
    84   32   80       1
    85   33   81       1
    86   38   82       1
    87   39   83       1
    88   41   84       1
    89   42   85       1
    90   43   86       1
    91   43   87       1
    92   43   88       1
    93   44   89       1
    94   44   90       1
    95   44   91       1
    96   45   92       1
    97   46   93       1
    98   48   94       1
    99   50   95       1
@<TRIPOS>SUBSTRUCTURE
     1 4AH1200     1 GROUP             4 B     4AH     0 **** 4AH B1200
