@<TRIPOS>MOLECULE
3ha5_SFG_1_ligand
   51    53     1     0     0
SMALL
NO_CHARGES


@<TRIPOS>ATOM
     1 N           24.4420    -6.7220    12.4410 N.4          1 SFG302   1.0000
     2 CA          24.4500    -8.2020    12.5200 C.3          1 SFG302   0.0000
     3 C           23.2400    -8.8010    13.2260 C.2          1 SFG302   0.0000
     4 O           22.4720    -8.1400    13.9450 O.co2        1 SFG302   0.0000
     5 OXT         22.9760   -10.0050    13.0350 O.co2        1 SFG302  -1.0000
     6 CB          25.7750    -8.8060    13.0290 C.3          1 SFG302   0.0000
     7 CG          26.0750    -8.5140    14.4900 C.3          1 SFG302   0.0000
     8 CD          27.2920    -9.3050    14.9750 C.3          1 SFG302   0.0000
     9 NE          27.2000    -9.3730    16.4220 N.4          1 SFG302   1.0000
    10 C5'         28.6960    -8.7140    14.7810 C.3          1 SFG302   0.0000
    11 C4'         29.1530    -8.4450    13.3520 C.3          1 SFG302   0.0000
    12 O4'         30.1200    -7.3770    13.4520 O.3          1 SFG302   0.0000
    13 C3'         29.8230    -9.5750    12.5520 C.3          1 SFG302   0.0000
    14 O3'         29.4220    -9.3710    11.1450 O.3          1 SFG302   0.0000
    15 C2'         31.3140    -9.2310    12.6940 C.3          1 SFG302   0.0000
    16 O2'         32.0750    -9.6440    11.5410 O.3          1 SFG302   0.0000
    17 C1'         31.2360    -7.6980    12.6540 C.3          1 SFG302   0.0000
    18 N9          32.4300    -6.9490    13.0920 N.pl3        1 SFG302   0.0000
    19 C8          33.1900    -7.1600    14.1770 C.2          1 SFG302   0.0000
    20 N7          34.1760    -6.2440    14.2070 N.2          1 SFG302   0.0000
    21 C5          34.0730    -5.4290    13.1200 C.ar         1 SFG302   0.0000
    22 C6          34.7900    -4.2490    12.5410 C.ar         1 SFG302   0.0000
    23 N6          35.8790    -3.7080    13.1050 N.pl3        1 SFG302   0.0000
    24 N1          34.3130    -3.7100    11.4120 N.ar         1 SFG302   0.0000
    25 C2          33.2350    -4.2170    10.7810 C.ar         1 SFG302   0.0000
    26 N3          32.5430    -5.2870    11.2500 N.ar         1 SFG302   0.0000
    27 C4          32.9120    -5.9190    12.3860 C.ar         1 SFG302   0.0000
    28 H1          25.2647    -6.4091    11.9663 H            1 SFG302   0.0000
    29 H2          23.6319    -6.4194    11.9388 H            1 SFG302   0.0000
    30 HA          24.3738    -8.5108    11.5719 H            1 SFG302   0.0000
    31 HB1         26.5211    -8.4352    12.4759 H            1 SFG302   0.0000
    32 HB2         25.7331    -9.7980    12.9101 H            1 SFG302   0.0000
    33 HG1         25.2807    -8.7664    15.0427 H            1 SFG302   0.0000
    34 HG2         26.2580    -7.5366    14.5962 H            1 SFG302   0.0000
    35 HD          27.2630   -10.2293    14.5945 H            1 SFG302   0.0000
    36 HE1         27.9803    -9.8844    16.7820 H            1 SFG302   0.0000
    37 HE2         27.2050    -8.4473    16.8002 H            1 SFG302   0.0000
    38 H5'1        29.3489    -9.3518    15.1896 H            1 SFG302   0.0000
    39 H5'2        28.7261    -7.8446    15.2741 H            1 SFG302   0.0000
    40 H4'         28.3689    -8.1113    12.8286 H            1 SFG302   0.0000
    41 H3'         29.5965   -10.4863    12.8959 H            1 SFG302   0.0000
    42 H15         28.4258    -9.4184    11.0721 H            1 SFG302   0.0000
    43 H2'         31.7039    -9.5708    13.5499 H            1 SFG302   0.0000
    44 H17         31.6481   -10.4500    11.1311 H            1 SFG302   0.0000
    45 H1'         31.0301    -7.4254    11.7142 H            1 SFG302   0.0000
    46 H19         33.0471    -7.8815    14.8545 H            1 SFG302   0.0000
    47 H20         36.3230    -2.9194    12.6796 H            1 SFG302   0.0000
    48 H21         36.2475    -4.0930    13.9512 H            1 SFG302   0.0000
    49 H22         32.9319    -3.7865     9.9308 H            1 SFG302   0.0000
    50 H23         24.4240    -6.3390    13.3646 H            1 SFG302   0.0000
    51 HE3         26.3512    -9.8342    16.6807 H            1 SFG302   0.0000
@<TRIPOS>BOND
     1    1    2       1
     2    2    3       1
     3    2    6       1
     4    3    4      ar
     5    3    5      ar
     6    6    7       1
     7    7    8       1
     8    8    9       1
     9    8   10       1
    10   10   11       1
    11   11   12       1
    12   11   13       1
    13   12   17       1
    14   13   14       1
    15   13   15       1
    16   15   16       1
    17   15   17       1
    18   17   18       1
    19   18   19       1
    20   18   27       1
    21   19   20       2
    22   20   21       1
    23   21   22      ar
    24   21   27      ar
    25   22   23       1
    26   22   24      ar
    27   24   25      ar
    28   25   26      ar
    29   26   27      ar
    30    1   28       1
    31    1   29       1
    32    2   30       1
    33    1   50       1
    34    6   31       1
    35    6   32       1
    36    7   33       1
    37    7   34       1
    38    8   35       1
    39    9   36       1
    40    9   37       1
    41   10   38       1
    42   10   39       1
    43   11   40       1
    44   13   41       1
    45   14   42       1
    46   15   43       1
    47   16   44       1
    48   17   45       1
    49   19   46       1
    50   23   47       1
    51   23   48       1
    52   25   49       1
    53    9   51       1
@<TRIPOS>SUBSTRUCTURE
     1 SFG302      1 GROUP             4 A     SFG     0 **** SFG A 302
