@<TRIPOS>MOLECULE
3f7u_AG4_1_ligand
   43    44     1     0     0
SMALL
NO_CHARGES


@<TRIPOS>ATOM
     1 O14         36.4570    39.7950    94.6250 O.2          1 AG4265   0.0000
     2 C1          37.0260    40.5750    93.8710 C.2          1 AG4265   0.0000
     3 N15         38.3150    40.4370    93.5540 N.am         1 AG4265   0.0000
     4 C16         38.8790    39.1270    93.8380 C.3          1 AG4265   0.0000
     5 C17         39.4370    38.9980    95.2290 C.3          1 AG4265   0.0000
     6 C19         39.9760    40.3220    95.7360 C.3          1 AG4265   0.0000
     7 O18         39.3510    40.5500    96.9960 O.3          1 AG4265   0.0000
     8 C20         39.5150    41.9440    97.2670 C.3          1 AG4265   0.0000
     9 C6          36.2020    41.7340    93.4360 C.ar         1 AG4265   0.0000
    10 C7          36.6610    42.9980    93.7360 C.ar         1 AG4265   0.0000
    11 C5          35.0020    41.4590    92.7720 C.ar         1 AG4265   0.0000
    12 N4          34.2550    42.5210    92.4480 N.ar         1 AG4265   0.0000
    13 C3          34.6520    43.7910    92.7470 C.ar         1 AG4265   0.0000
    14 C2          35.8390    44.0670    93.3960 C.ar         1 AG4265   0.0000
    15 S8          36.2230    45.6180    93.7180 S.o2         1 AG4265   0.0000
    16 O12         35.0320    46.2110    94.4520 O.2          1 AG4265   0.0000
    17 O11         36.4730    46.3380    92.3680 O.2          1 AG4265   0.0000
    18 N9          37.6400    45.6710    94.4910 N.3          1 AG4265  -1.0000
    19 S10         34.5360    39.8230    92.3990 S.3          1 AG4265   0.0000
    20 C13         33.0230    39.9510    91.6460 C.ar         1 AG4265   0.0000
    21 C21         32.9270    40.4600    90.3450 C.ar         1 AG4265   0.0000
    22 C22         31.6640    40.5360    89.7370 C.ar         1 AG4265   0.0000
    23 C23         30.5280    40.1100    90.4250 C.ar         1 AG4265   0.0000
    24 C24         30.6130    39.5820    91.7260 C.ar         1 AG4265   0.0000
    25 C25         31.8680    39.5090    92.3320 C.ar         1 AG4265   0.0000
    26 H1          38.8523    41.1782    93.1517 H            1 AG4265   0.0000
    27 H2          39.6156    38.9520    93.1848 H            1 AG4265   0.0000
    28 H3          38.1602    38.4417    93.7213 H            1 AG4265   0.0000
    29 H4          40.1783    38.3269    95.2209 H            1 AG4265   0.0000
    30 H5          38.7116    38.6860    95.8426 H            1 AG4265   0.0000
    31 H6          39.7469    41.0568    95.0975 H            1 AG4265   0.0000
    32 H7          40.9688    40.2729    95.8454 H            1 AG4265   0.0000
    33 H8          39.0926    42.1646    98.1461 H            1 AG4265   0.0000
    34 H9          40.4898    42.1646    97.3009 H            1 AG4265   0.0000
    35 H10         39.0774    42.4780    96.5436 H            1 AG4265   0.0000
    36 H11         37.5463    43.1404    94.1787 H            1 AG4265   0.0000
    37 H12         34.0595    44.5530    92.4857 H            1 AG4265   0.0000
    38 H13         38.2931    46.2046    93.9536 H            1 AG4265   0.0000
    39 H14         33.7450    40.7644    89.8569 H            1 AG4265   0.0000
    40 H15         31.5786    40.8965    88.8082 H            1 AG4265   0.0000
    41 H16         29.6335    40.1815    89.9837 H            1 AG4265   0.0000
    42 H17         29.7939    39.2665    92.2051 H            1 AG4265   0.0000
    43 H18         31.9512    39.1414    93.2583 H            1 AG4265   0.0000
@<TRIPOS>BOND
     1    1    2       2
     2    2    3      am
     3    2    9       1
     4    3    4       1
     5    4    5       1
     6    5    6       1
     7    6    7       1
     8    7    8       1
     9    9   10      ar
    10    9   11      ar
    11   10   14      ar
    12   11   12      ar
    13   11   19       1
    14   12   13      ar
    15   13   14      ar
    16   14   15       1
    17   15   16       2
    18   15   17       2
    19   15   18       1
    20   19   20       1
    21   20   21      ar
    22   20   25      ar
    23   21   22      ar
    24   22   23      ar
    25   23   24      ar
    26   24   25      ar
    27    3   26       1
    28    4   27       1
    29    4   28       1
    30    5   29       1
    31    5   30       1
    32    6   31       1
    33    6   32       1
    34    8   33       1
    35    8   34       1
    36    8   35       1
    37   10   36       1
    38   13   37       1
    39   25   43       1
    40   18   38       1
    41   21   39       1
    42   22   40       1
    43   23   41       1
    44   24   42       1
@<TRIPOS>SUBSTRUCTURE
     1 AG4265      1 GROUP             4 A     AG4     0 **** AG4 A 265
