@<TRIPOS>MOLECULE
2qwn_ADP_1_ligand
   39    41     1     0     0
SMALL
NO_CHARGES


@<TRIPOS>ATOM
     1 PB         -14.0520    -2.2080    23.1900 P.3          1 ADP487   0.0000
     2 O1B        -14.0440    -3.5920    23.8190 O.co2        1 ADP487   0.0000
     3 O2B        -14.5850    -2.2280    21.7930 O.co2        1 ADP487  -1.0000
     4 O3B        -14.6420    -1.0960    24.0230 O.co2        1 ADP487  -1.0000
     5 PA         -11.6320    -0.6130    22.6030 P.3          1 ADP487   0.0000
     6 O1A        -12.4900     0.6430    22.6940 O.co2        1 ADP487   0.0000
     7 O2A        -10.2870    -0.7380    23.2920 O.co2        1 ADP487  -1.0000
     8 O3A        -12.4490    -1.9270    23.0850 O.3          1 ADP487   0.0000
     9 O5'        -11.3570    -0.8530    21.0500 O.3          1 ADP487   0.0000
    10 C5'        -10.7410    -2.0410    20.5840 C.3          1 ADP487   0.0000
    11 C4'        -10.6480    -1.8930    19.0710 C.3          1 ADP487   0.0000
    12 O4'         -9.9690    -0.6810    18.7490 O.3          1 ADP487   0.0000
    13 C3'         -9.8630    -3.0230    18.4110 C.3          1 ADP487   0.0000
    14 O3'        -10.4370    -3.2940    17.1210 O.3          1 ADP487   0.0000
    15 C2'         -8.5030    -2.4260    18.1830 C.3          1 ADP487   0.0000
    16 O2'         -7.8580    -3.0730    17.0870 O.3          1 ADP487   0.0000
    17 C1'         -8.8970    -1.0030    17.8450 C.3          1 ADP487   0.0000
    18 N9          -7.7450    -0.0800    17.9510 N.pl3        1 ADP487   0.0000
    19 C8          -7.0060     0.1840    19.0500 C.2          1 ADP487   0.0000
    20 N7          -6.0270     1.0830    18.7700 N.2          1 ADP487   0.0000
    21 C5          -6.1470     1.4070    17.4650 C.ar         1 ADP487   0.0000
    22 C6          -5.4510     2.2880    16.5000 C.ar         1 ADP487   0.0000
    23 N6          -4.3950     3.0380    16.8640 N.pl3        1 ADP487   0.0000
    24 N1          -5.9040     2.3290    15.2290 N.ar         1 ADP487   0.0000
    25 C2          -6.9530     1.5880    14.8140 C.ar         1 ADP487   0.0000
    26 N3          -7.6250     0.7590    15.6270 N.ar         1 ADP487   0.0000
    27 C4          -7.2830     0.6360    16.9390 C.ar         1 ADP487   0.0000
    28 H5'1       -11.2960    -2.8379    20.8226 H            1 ADP487   0.0000
    29 H5'2        -9.8285    -2.1392    20.9812 H            1 ADP487   0.0000
    30 H4'        -11.5705    -1.8652    18.6861 H            1 ADP487   0.0000
    31 H3'         -9.8242    -3.8406    18.9855 H            1 ADP487   0.0000
    32 H5         -10.3057    -4.2589    16.8938 H            1 ADP487   0.0000
    33 H2'         -7.9434    -2.4638    19.0109 H            1 ADP487   0.0000
    34 H7          -7.3316    -3.8537    17.4237 H            1 ADP487   0.0000
    35 H1'         -9.2459    -0.9781    16.9082 H            1 ADP487   0.0000
    36 H9          -7.1589    -0.2269    19.9488 H            1 ADP487   0.0000
    37 H10         -3.9430     3.6247    16.1920 H            1 ADP487   0.0000
    38 H11         -4.0621     3.0088    17.8065 H            1 ADP487   0.0000
    39 H12         -7.2418     1.6600    13.8593 H            1 ADP487   0.0000
@<TRIPOS>BOND
     1    1    2      ar
     2    1    3      ar
     3    1    4      ar
     4    1    8       1
     5    5    6      ar
     6    5    7      ar
     7    5    8       1
     8    5    9       1
     9    9   10       1
    10   10   11       1
    11   11   12       1
    12   11   13       1
    13   12   17       1
    14   13   14       1
    15   13   15       1
    16   15   16       1
    17   15   17       1
    18   17   18       1
    19   18   19       1
    20   18   27       1
    21   19   20       2
    22   20   21       1
    23   21   22      ar
    24   21   27      ar
    25   22   23       1
    26   22   24      ar
    27   24   25      ar
    28   25   26      ar
    29   26   27      ar
    30   25   39       1
    31   23   38       1
    32   23   37       1
    33   10   28       1
    34   10   29       1
    35   11   30       1
    36   13   31       1
    37   14   32       1
    38   15   33       1
    39   16   34       1
    40   17   35       1
    41   19   36       1
@<TRIPOS>SUBSTRUCTURE
     1 ADP487      1 GROUP             4 A     ADP     0 **** ADP A 487
