@<TRIPOS>MOLECULE
1umk_FAD_1_ligand
   84    89     1     0     0
SMALL
NO_CHARGES


@<TRIPOS>ATOM
     1 PA          65.9230    48.3480    -9.7680 P.3          1 FAD1301   0.0000
     2 O1A         66.0760    48.8970   -11.1380 O.co2        1 FAD1301   0.0000
     3 O2A         65.8940    46.8090    -9.7270 O.co2        1 FAD1301  -1.0000
     4 O5B         67.1210    48.8970    -8.8590 O.3          1 FAD1301   0.0000
     5 C5B         66.8890    49.0930    -7.4900 C.3          1 FAD1301   0.0000
     6 C4B         68.1180    48.6320    -6.7370 C.3          1 FAD1301   0.0000
     7 O4B         69.1650    49.5560    -6.9850 O.3          1 FAD1301   0.0000
     8 C3B         67.8450    48.6250    -5.2440 C.3          1 FAD1301   0.0000
     9 O3B         67.7510    47.3090    -4.7420 O.3          1 FAD1301   0.0000
    10 C2B         69.0300    49.3590    -4.6590 C.3          1 FAD1301   0.0000
    11 O2B         70.0260    48.4230    -4.3230 O.3          1 FAD1301   0.0000
    12 C1B         69.5350    50.2340    -5.7980 C.3          1 FAD1301   0.0000
    13 N9A         68.9340    51.5890    -5.7980 N.pl3        1 FAD1301   0.0000
    14 C8A         68.5230    52.2810    -6.9120 C.2          1 FAD1301   0.0000
    15 N7A         68.0380    53.4850    -6.5310 N.2          1 FAD1301   0.0000
    16 C5A         68.1300    53.5830    -5.1870 C.ar         1 FAD1301   0.0000
    17 C6A         67.7790    54.5930    -4.2900 C.ar         1 FAD1301   0.0000
    18 N6A         67.1000    55.6610    -4.7020 N.pl3        1 FAD1301   0.0000
    19 N1A         67.9950    54.4070    -2.9370 N.ar         1 FAD1301   0.0000
    20 C2A         68.5560    53.2300    -2.4810 C.ar         1 FAD1301   0.0000
    21 N3A         68.9010    52.2340    -3.3770 N.ar         1 FAD1301   0.0000
    22 C4A         68.6930    52.4000    -4.7110 C.ar         1 FAD1301   0.0000
    23 N1          58.2960    45.8730    -4.2800 N.2          1 FAD1301   0.0000
    24 C2          57.2850    46.7540    -3.9650 C.2          1 FAD1301   0.0000
    25 O2          57.4910    47.9620    -4.0330 O.2          1 FAD1301   0.0000
    26 N3          56.0470    46.2840    -3.5780 N.pl3        1 FAD1301   0.0000
    27 C4          55.8030    44.9280    -3.5010 C.2          1 FAD1301   0.0000
    28 O4          54.6910    44.5230    -3.1360 O.2          1 FAD1301   0.0000
    29 C4X         56.8250    44.0320    -3.8220 C.2          1 FAD1301   0.0000
    30 N5          56.5930    42.6780    -3.7500 N.2          1 FAD1301   0.0000
    31 C5X         57.6040    41.7900    -4.0630 C.ar         1 FAD1301   0.0000
    32 C6          57.3510    40.4230    -3.9830 C.ar         1 FAD1301   0.0000
    33 C7          58.3560    39.5090    -4.2960 C.ar         1 FAD1301   0.0000
    34 C7M         58.0220    38.0440    -4.2880 C.3          1 FAD1301   0.0000
    35 C8          59.6240    39.9640    -4.6830 C.ar         1 FAD1301   0.0000
    36 C8M         60.7620    39.0100    -4.9430 C.3          1 FAD1301   0.0000
    37 C9          59.8690    41.3300    -4.7600 C.ar         1 FAD1301   0.0000
    38 C9A         58.8670    42.2550    -4.4540 C.ar         1 FAD1301   0.0000
    39 N10         59.1050    43.6240    -4.5380 N.pl3        1 FAD1301   0.0000
    40 C10         58.0820    44.5080    -4.2140 C.2          1 FAD1301   0.0000
    41 C1'         60.4200    44.1520    -5.0500 C.3          1 FAD1301   0.0000
    42 C2'         60.3440    44.4580    -6.5490 C.3          1 FAD1301   0.0000
    43 O2'         60.3330    43.2390    -7.2460 O.3          1 FAD1301   0.0000
    44 C3'         61.5150    45.2940    -7.0690 C.3          1 FAD1301   0.0000
    45 O3'         62.7240    44.7050    -6.6420 O.3          1 FAD1301   0.0000
    46 C4'         61.4570    46.7620    -6.6310 C.3          1 FAD1301   0.0000
    47 O4'         60.2750    47.3660    -7.1150 O.3          1 FAD1301   0.0000
    48 C5'         62.6520    47.5590    -7.1500 C.3          1 FAD1301   0.0000
    49 O5'         62.7360    47.3990    -8.5500 O.3          1 FAD1301   0.0000
    50 P           63.1450    48.6380    -9.4910 P.3          1 FAD1301   0.0000
    51 O1P         63.1160    48.2520   -10.9130 O.co2        1 FAD1301   0.0000
    52 O2P         62.3050    49.8830    -9.1930 O.co2        1 FAD1301  -1.0000
    53 O3P         64.6400    48.9740    -9.0270 O.3          1 FAD1301   0.0000
    54 H5B1        66.0939    48.5599    -7.2008 H            1 FAD1301   0.0000
    55 H5B2        66.7240    50.0626    -7.3091 H            1 FAD1301   0.0000
    56 H4B         68.3860    47.7182    -7.0422 H            1 FAD1301   0.0000
    57 H3B         67.0021    49.1263    -5.0484 H            1 FAD1301   0.0000
    58 H5          68.3289    46.7021    -5.2875 H            1 FAD1301   0.0000
    59 H2B         68.7639    49.9087    -3.8671 H            1 FAD1301   0.0000
    60 H7          70.8145    48.9001    -3.9349 H            1 FAD1301   0.0000
    61 H1B         70.5311    50.3078    -5.7493 H            1 FAD1301   0.0000
    62 H8A         68.5743    51.9478    -7.8535 H            1 FAD1301   0.0000
    63 H6A1        66.8537    56.3788    -4.0507 H            1 FAD1301   0.0000
    64 H6A2        66.8361    55.7457    -5.6628 H            1 FAD1301   0.0000
    65 H2A         68.7129    53.0977    -1.5023 H            1 FAD1301   0.0000
    66 H13         55.3198    46.9319    -3.3512 H            1 FAD1301   0.0000
    67 H14         56.4486    40.0970    -3.7011 H            1 FAD1301   0.0000
    68 H7M1        58.8356    37.5153    -4.5299 H            1 FAD1301   0.0000
    69 H7M2        57.7108    37.7780    -3.3756 H            1 FAD1301   0.0000
    70 H7M3        57.2974    37.8637    -4.9531 H            1 FAD1301   0.0000
    71 H8M1        61.5767    39.5268    -5.2060 H            1 FAD1301   0.0000
    72 H8M2        60.9534    38.4855    -4.1134 H            1 FAD1301   0.0000
    73 H8M3        60.5107    38.3849    -5.6820 H            1 FAD1301   0.0000
    74 H21         60.7731    41.6548    -5.0377 H            1 FAD1301   0.0000
    75 H1'1        61.1311    43.4669    -4.8920 H            1 FAD1301   0.0000
    76 H1'2        60.6498    44.9908    -4.5565 H            1 FAD1301   0.0000
    77 H2'         59.4910    44.9450    -6.7365 H            1 FAD1301   0.0000
    78 H25         59.3888    42.9328    -7.3671 H            1 FAD1301   0.0000
    79 H3'         61.4941    45.2681    -8.0684 H            1 FAD1301   0.0000
    80 H27         62.9862    45.0871    -5.7559 H            1 FAD1301   0.0000
    81 H4'         61.4531    46.8005    -5.6318 H            1 FAD1301   0.0000
    82 H29         59.7460    46.6946    -7.6340 H            1 FAD1301   0.0000
    83 H5'1        63.4911    47.2221    -6.7228 H            1 FAD1301   0.0000
    84 H5'2        62.5311    48.5269    -6.9295 H            1 FAD1301   0.0000
@<TRIPOS>BOND
     1    1    2      ar
     2    1    3      ar
     3    1    4       1
     4    1   53       1
     5    4    5       1
     6    5    6       1
     7    6    7       1
     8    6    8       1
     9    7   12       1
    10    8    9       1
    11    8   10       1
    12   10   11       1
    13   10   12       1
    14   12   13       1
    15   13   14       1
    16   13   22       1
    17   14   15       2
    18   15   16       1
    19   16   17      ar
    20   16   22      ar
    21   17   18       1
    22   17   19      ar
    23   19   20      ar
    24   20   21      ar
    25   21   22      ar
    26   23   24       1
    27   23   40       2
    28   24   25       2
    29   24   26       1
    30   26   27       1
    31   27   28       2
    32   27   29       1
    33   29   30       2
    34   29   40       1
    35   30   31       1
    36   31   32      ar
    37   31   38      ar
    38   32   33      ar
    39   33   34       1
    40   33   35      ar
    41   35   36       1
    42   35   37      ar
    43   37   38      ar
    44   38   39       1
    45   39   40       1
    46   39   41       1
    47   41   42       1
    48   42   43       1
    49   42   44       1
    50   44   45       1
    51   44   46       1
    52   46   47       1
    53   46   48       1
    54   48   49       1
    55   49   50       1
    56   50   51      ar
    57   50   52      ar
    58   50   53       1
    59   48   84       1
    60    5   54       1
    61    5   55       1
    62    6   56       1
    63    8   57       1
    64    9   58       1
    65   10   59       1
    66   11   60       1
    67   12   61       1
    68   14   62       1
    69   18   63       1
    70   18   64       1
    71   20   65       1
    72   26   66       1
    73   32   67       1
    74   34   68       1
    75   34   69       1
    76   34   70       1
    77   36   71       1
    78   36   72       1
    79   36   73       1
    80   37   74       1
    81   41   75       1
    82   41   76       1
    83   42   77       1
    84   43   78       1
    85   44   79       1
    86   45   80       1
    87   46   81       1
    88   47   82       1
    89   48   83       1
@<TRIPOS>SUBSTRUCTURE
     1 FAD1301     1 GROUP             4 A     FAD     0 **** FAD A1301
