@<TRIPOS>MOLECULE
3cgt_BCD_1_ligand
  147   154     1     0     0
SMALL
NO_CHARGES


@<TRIPOS>ATOM
     1 C11         58.1780    14.7950     3.3350 C.3          1 BCD701   0.0000
     2 C21         59.7110    14.7440     3.2510 C.3          1 BCD701   0.0000
     3 O21         60.1510    13.4910     2.7530 O.3          1 BCD701   0.0000
     4 C31         60.3390    14.9900     4.6200 C.3          1 BCD701   0.0000
     5 O31         61.7550    15.0640     4.4810 O.3          1 BCD701   0.0000
     6 C41         59.8150    16.2810     5.2720 C.3          1 BCD701   0.0000
     7 O41         60.1980    16.2680     6.6750 O.3          1 BCD701   0.0000
     8 C51         58.2680    16.3810     5.1700 C.3          1 BCD701   0.0000
     9 O51         57.7870    16.0670     3.8390 O.3          1 BCD701   0.0000
    10 C61         57.7750    17.7860     5.4690 C.3          1 BCD701   0.0000
    11 O61         58.0100    18.1360     6.8240 O.3          1 BCD701   0.0000
    12 C12         61.0020    17.3040     7.1830 C.3          1 BCD701   0.0000
    13 C22         62.3030    16.7150     7.7430 C.3          1 BCD701   0.0000
    14 O22         62.9610    15.9500     6.7470 O.3          1 BCD701   0.0000
    15 C32         62.0260    15.8220     8.9590 C.3          1 BCD701   0.0000
    16 O32         63.2640    15.4110     9.5360 O.3          1 BCD701   0.0000
    17 C42         61.1590    16.5530    10.0100 C.3          1 BCD701   0.0000
    18 O42         60.7260    15.6110    11.0280 O.3          1 BCD701   0.0000
    19 C52         59.9230    17.1740     9.3270 C.3          1 BCD701   0.0000
    20 O52         60.3320    18.0100     8.2190 O.3          1 BCD701   0.0000
    21 C62         59.0510    18.0280    10.2440 C.3          1 BCD701   0.0000
    22 O62         59.7200    19.2140    10.6580 O.3          1 BCD701   0.0000
    23 C13         60.6900    16.0820    12.3510 C.3          1 BCD701   0.0000
    24 C23         61.9690    15.7020    13.0790 C.3          1 BCD701   0.0000
    25 O23         63.0860    16.1970    12.3600 O.3          1 BCD701   0.0000
    26 C33         62.0870    14.1780    13.2170 C.3          1 BCD701   0.0000
    27 O33         63.1600    13.8590    14.0980 O.3          1 BCD701   0.0000
    28 C43         60.8140    13.5310    13.7610 C.3          1 BCD701   0.0000
    29 O43         60.8910    12.1120    13.4730 O.3          1 BCD701   0.0000
    30 C53         59.5170    14.1300    13.1450 C.3          1 BCD701   0.0000
    31 O53         59.5810    15.5740    13.0630 O.3          1 BCD701   0.0000
    32 C63         58.2970    13.8250    14.0050 C.3          1 BCD701   0.0000
    33 O63         58.4470    14.3650    15.3140 O.3          1 BCD701   0.0000
    34 C14         60.6500    11.2250    14.5320 C.3          1 BCD701   0.0000
    35 C24         61.4810     9.9400    14.3370 C.3          1 BCD701   0.0000
    36 O24         62.8250    10.2810    14.0080 O.3          1 BCD701   0.0000
    37 C34         60.8940     9.0600    13.2260 C.3          1 BCD701   0.0000
    38 O34         61.5530     7.8010    13.1880 O.3          1 BCD701   0.0000
    39 C44         59.4000     8.8350    13.4330 C.3          1 BCD701   0.0000
    40 O44         58.8840     8.1100    12.2990 O.3          1 BCD701   0.0000
    41 C54         58.7050    10.1930    13.5490 C.3          1 BCD701   0.0000
    42 O54         59.2610    10.9220    14.6650 O.3          1 BCD701   0.0000
    43 C64         57.1910    10.1170    13.7440 C.3          1 BCD701   0.0000
    44 O64         56.8340     9.1480    14.7160 O.3          1 BCD701   0.0000
    45 C15         58.0930     6.9850    12.5570 C.3          1 BCD701   0.0000
    46 C25         58.3780     5.9370    11.4940 C.3          1 BCD701   0.0000
    47 O25         59.7770     5.6680    11.4480 O.3          1 BCD701   0.0000
    48 C35         57.9050     6.4470    10.1360 C.3          1 BCD701   0.0000
    49 O35         58.1260     5.4380     9.1660 O.3          1 BCD701   0.0000
    50 C45         56.4120     6.8230    10.1730 C.3          1 BCD701   0.0000
    51 O45         56.0490     7.4740     8.9250 O.3          1 BCD701   0.0000
    52 C55         56.1320     7.7900    11.3450 C.3          1 BCD701   0.0000
    53 O55         56.6970     7.2930    12.5890 O.3          1 BCD701   0.0000
    54 C65         54.6340     8.0020    11.5950 C.3          1 BCD701   0.0000
    55 O65         54.3540     8.2890    12.9640 O.3          1 BCD701   0.0000
    56 C16         54.9960     6.9300     8.1580 C.3          1 BCD701   0.0000
    57 C26         55.5450     6.3800     6.8400 C.3          1 BCD701   0.0000
    58 O26         56.5340     5.3920     7.0860 O.3          1 BCD701   0.0000
    59 C36         56.1440     7.5230     6.0210 C.3          1 BCD701   0.0000
    60 O36         56.6770     7.0140     4.8020 O.3          1 BCD701   0.0000
    61 C46         55.0770     8.6080     5.7430 C.3          1 BCD701   0.0000
    62 O46         55.7280     9.7710     5.1550 O.3          1 BCD701   0.0000
    63 C56         54.3890     9.0390     7.0680 C.3          1 BCD701   0.0000
    64 O56         53.9730     7.8920     7.8710 O.3          1 BCD701   0.0000
    65 C66         53.1450     9.9140     6.8440 C.3          1 BCD701   0.0000
    66 O66         52.0420     9.1700     6.3300 O.3          1 BCD701   0.0000
    67 C17         55.3010    10.2410     3.8960 C.3          1 BCD701   0.0000
    68 C27         56.4980    10.3160     2.9450 C.3          1 BCD701   0.0000
    69 O27         57.1950     9.0750     2.9530 O.3          1 BCD701   0.0000
    70 C37         57.4620    11.4380     3.3540 C.3          1 BCD701   0.0000
    71 O37         58.4770    11.5660     2.3700 O.3          1 BCD701   0.0000
    72 C47         56.7480    12.7860     3.5160 C.3          1 BCD701   0.0000
    73 O47         57.6780    13.7330     4.1230 O.3          1 BCD701   0.0000
    74 C57         55.4960    12.6220     4.4140 C.3          1 BCD701   0.0000
    75 O57         54.6590    11.5190     3.9690 O.3          1 BCD701   0.0000
    76 C67         54.6060    13.8620     4.4210 C.3          1 BCD701   0.0000
    77 O67         53.8990    14.0080     3.1920 O.3          1 BCD701   0.0000
    78 H1          57.8105    14.6984     2.4100 H            1 BCD701   0.0000
    79 H2          60.0195    15.4610     2.6259 H            1 BCD701   0.0000
    80 H3          60.6701    13.6311     1.9099 H            1 BCD701   0.0000
    81 H4          60.1168    14.2185     5.2162 H            1 BCD701   0.0000
    82 H5          62.1699    15.2252     5.3765 H            1 BCD701   0.0000
    83 H6          60.2293    17.0721     4.8220 H            1 BCD701   0.0000
    84 H7          57.8567    15.7455     5.8234 H            1 BCD701   0.0000
    85 H8          56.7930    17.8328     5.2858 H            1 BCD701   0.0000
    86 H9          58.2557    18.4330     4.8771 H            1 BCD701   0.0000
    87 H10         58.8244    17.6593     7.1550 H            1 BCD701   0.0000
    88 H11         61.2224    17.9398     6.4433 H            1 BCD701   0.0000
    89 H12         62.9026    17.4647     8.0229 H            1 BCD701   0.0000
    90 H13         63.5844    16.5386     6.2322 H            1 BCD701   0.0000
    91 H14         61.5332    15.0084     8.6505 H            1 BCD701   0.0000
    92 H15         63.3131    15.7305    10.4823 H            1 BCD701   0.0000
    93 H16         61.6992    17.2775    10.4382 H            1 BCD701   0.0000
    94 H17         59.3603    16.4306     8.9654 H            1 BCD701   0.0000
    95 H18         58.8116    17.4923    11.0537 H            1 BCD701   0.0000
    96 H19         58.2172    18.2814     9.7535 H            1 BCD701   0.0000
    97 H20         59.1186    19.7448    11.2551 H            1 BCD701   0.0000
    98 H21         60.6224    17.0795    12.3299 H            1 BCD701   0.0000
    99 H22         61.9598    16.1125    13.9908 H            1 BCD701   0.0000
   100 H23         63.8704    15.5943    12.5064 H            1 BCD701   0.0000
   101 H24         62.2848    13.7891    12.3172 H            1 BCD701   0.0000
   102 H25         64.0056    13.7642    13.5727 H            1 BCD701   0.0000
   103 H26         60.7873    13.6571    14.7527 H            1 BCD701   0.0000
   104 H27         59.3798    13.7519    12.2294 H            1 BCD701   0.0000
   105 H28         58.1833    12.8337    14.0713 H            1 BCD701   0.0000
   106 H29         57.4869    14.2255    13.5770 H            1 BCD701   0.0000
   107 H30         57.7104    15.0175    15.4918 H            1 BCD701   0.0000
   108 H31         60.9531    11.6638    15.3779 H            1 BCD701   0.0000
   109 H32         61.4799     9.4224    15.1926 H            1 BCD701   0.0000
   110 H33         63.0600    11.1561    14.4311 H            1 BCD701   0.0000
   111 H34         61.0301     9.5193    12.3482 H            1 BCD701   0.0000
   112 H35         61.9790     7.6747    12.2922 H            1 BCD701   0.0000
   113 H36         59.2504     8.3064    14.2686 H            1 BCD701   0.0000
   114 H37         58.8879    10.7112    12.7135 H            1 BCD701   0.0000
   115 H38         56.7641     9.8744    12.8729 H            1 BCD701   0.0000
   116 H39         56.8574    11.0117    14.0410 H            1 BCD701   0.0000
   117 H40         56.6962     8.2636    14.2701 H            1 BCD701   0.0000
   118 H41         58.3549     6.6118    13.4470 H            1 BCD701   0.0000
   119 H42         57.8872     5.0955    11.7199 H            1 BCD701   0.0000
   120 H43         60.2709     6.5086    11.2258 H            1 BCD701   0.0000
   121 H44         58.4378     7.2566     9.8896 H            1 BCD701   0.0000
   122 H45         57.4374     5.5125     8.4447 H            1 BCD701   0.0000
   123 H46         55.8635     5.9947    10.2874 H            1 BCD701   0.0000
   124 H47         56.5491     8.6745    11.1358 H            1 BCD701   0.0000
   125 H48         54.1426     7.1716    11.3325 H            1 BCD701   0.0000
   126 H49         54.3186     8.7674    11.0340 H            1 BCD701   0.0000
   127 H50         53.3697     8.4198    13.0826 H            1 BCD701   0.0000
   128 H51         54.5869     6.1753     8.6709 H            1 BCD701   0.0000
   129 H52         54.7953     5.9676     6.3225 H            1 BCD701   0.0000
   130 H53         56.8813     5.0440     6.2152 H            1 BCD701   0.0000
   131 H54         56.8882     7.9354     6.5464 H            1 BCD701   0.0000
   132 H55         56.6156     7.7160     4.0925 H            1 BCD701   0.0000
   133 H56         54.3912     8.2504     5.1091 H            1 BCD701   0.0000
   134 H57         55.0484     9.5684     7.6018 H            1 BCD701   0.0000
   135 H58         53.3747    10.6382     6.1938 H            1 BCD701   0.0000
   136 H59         52.8781    10.3221     7.7170 H            1 BCD701   0.0000
   137 H60         51.2597     9.7795     6.2014 H            1 BCD701   0.0000
   138 H61         54.6464     9.5836     3.5228 H            1 BCD701   0.0000
   139 H62         56.1658    10.4954     2.0190 H            1 BCD701   0.0000
   140 H63         57.1977     8.6883     2.0308 H            1 BCD701   0.0000
   141 H64         57.8881    11.1936     4.2250 H            1 BCD701   0.0000
   142 H65         59.1068    12.2965     2.6339 H            1 BCD701   0.0000
   143 H66         56.4696    13.1242     2.6170 H            1 BCD701   0.0000
   144 H67         55.7958    12.4384     5.3502 H            1 BCD701   0.0000
   145 H68         55.1769    14.6703     4.5649 H            1 BCD701   0.0000
   146 H69         53.9456    13.7831     5.1678 H            1 BCD701   0.0000
   147 H70         53.3277    14.8278     3.2315 H            1 BCD701   0.0000
@<TRIPOS>BOND
     1    1    2       1
     2    1    9       1
     3    1   73       1
     4    2    3       1
     5    2    4       1
     6    4    5       1
     7    4    6       1
     8    6    7       1
     9    6    8       1
    10    7   12       1
    11    8    9       1
    12    8   10       1
    13   10   11       1
    14   12   13       1
    15   12   20       1
    16   13   14       1
    17   13   15       1
    18   15   16       1
    19   15   17       1
    20   17   18       1
    21   17   19       1
    22   18   23       1
    23   19   20       1
    24   19   21       1
    25   21   22       1
    26   23   24       1
    27   23   31       1
    28   24   25       1
    29   24   26       1
    30   26   27       1
    31   26   28       1
    32   28   29       1
    33   28   30       1
    34   29   34       1
    35   30   31       1
    36   30   32       1
    37   32   33       1
    38   34   35       1
    39   34   42       1
    40   35   36       1
    41   35   37       1
    42   37   38       1
    43   37   39       1
    44   39   40       1
    45   39   41       1
    46   40   45       1
    47   41   42       1
    48   41   43       1
    49   43   44       1
    50   45   46       1
    51   45   53       1
    52   46   47       1
    53   46   48       1
    54   48   49       1
    55   48   50       1
    56   50   51       1
    57   50   52       1
    58   51   56       1
    59   52   53       1
    60   52   54       1
    61   54   55       1
    62   56   57       1
    63   56   64       1
    64   57   58       1
    65   57   59       1
    66   59   60       1
    67   59   61       1
    68   61   62       1
    69   61   63       1
    70   62   67       1
    71   63   64       1
    72   63   65       1
    73   65   66       1
    74   67   68       1
    75   67   75       1
    76   68   69       1
    77   68   70       1
    78   70   71       1
    79   70   72       1
    80   72   73       1
    81   72   74       1
    82   74   75       1
    83   74   76       1
    84   76   77       1
    85    1   78       1
    86    2   79       1
    87    3   80       1
    88    4   81       1
    89    5   82       1
    90    6   83       1
    91    8   84       1
    92   10   85       1
    93   10   86       1
    94   11   87       1
    95   12   88       1
    96   13   89       1
    97   14   90       1
    98   15   91       1
    99   16   92       1
   100   17   93       1
   101   19   94       1
   102   21   95       1
   103   21   96       1
   104   22   97       1
   105   23   98       1
   106   24   99       1
   107   25  100       1
   108   26  101       1
   109   27  102       1
   110   28  103       1
   111   30  104       1
   112   32  105       1
   113   32  106       1
   114   33  107       1
   115   34  108       1
   116   35  109       1
   117   36  110       1
   118   37  111       1
   119   38  112       1
   120   39  113       1
   121   41  114       1
   122   43  115       1
   123   43  116       1
   124   44  117       1
   125   45  118       1
   126   46  119       1
   127   47  120       1
   128   48  121       1
   129   49  122       1
   130   50  123       1
   131   52  124       1
   132   54  125       1
   133   54  126       1
   134   55  127       1
   135   56  128       1
   136   57  129       1
   137   58  130       1
   138   59  131       1
   139   60  132       1
   140   61  133       1
   141   63  134       1
   142   65  135       1
   143   65  136       1
   144   66  137       1
   145   67  138       1
   146   68  139       1
   147   69  140       1
   148   70  141       1
   149   71  142       1
   150   72  143       1
   151   74  144       1
   152   76  145       1
   153   76  146       1
   154   77  147       1
@<TRIPOS>SUBSTRUCTURE
     1 BCD701      1 GROUP             4 A     BCD     0 **** BCD A 701
