@<TRIPOS>MOLECULE
3ldw_IPE_2_ligand
   23    22     1     0     0
SMALL
NO_CHARGES


@<TRIPOS>ATOM
     1 C1          -5.7870    13.6990   -33.7090 C.3          1 IPE1101   0.0000
     2 O1          -4.3950    13.3660   -33.7550 O.3          1 IPE1101   0.0000
     3 C2          -6.5740    12.7230   -34.5920 C.3          1 IPE1101   0.0000
     4 C3          -6.2040    12.7880   -36.0590 C.2          1 IPE1101   0.0000
     5 C4          -5.2900    13.8530   -36.6200 C.3          1 IPE1101   0.0000
     6 C5          -6.7020    11.8630   -36.8680 C.2          1 IPE1101   0.0000
     7 PA          -3.6610    12.5100   -32.5990 P.3          1 IPE1101   0.0000
     8 O1A         -4.5530    11.3300   -32.2770 O.co2        1 IPE1101   0.0000
     9 O2A         -2.2220    12.3190   -33.0400 O.co2        1 IPE1101  -1.0000
    10 O3A         -3.7280    13.4940   -31.3180 O.3          1 IPE1101   0.0000
    11 PB          -2.7270    13.5880   -30.0560 P.3          1 IPE1101   0.0000
    12 O1B         -3.6920    13.8810   -28.9180 O.co2        1 IPE1101   0.0000
    13 O2B         -1.9900    12.2850   -29.9010 O.co2        1 IPE1101  -1.0000
    14 O3B         -1.8400    14.7200   -30.4470 O.co2        1 IPE1101  -1.0000
    15 H1          -5.9180    14.6320   -34.0442 H            1 IPE1101   0.0000
    16 H2          -6.1145    13.6344   -32.7664 H            1 IPE1101   0.0000
    17 H3          -7.5477    12.9330   -34.5032 H            1 IPE1101   0.0000
    18 H4          -6.4023    11.7938   -34.2648 H            1 IPE1101   0.0000
    19 H5          -5.1787    13.7123   -37.6038 H            1 IPE1101   0.0000
    20 H6          -5.6888    14.7551   -36.4553 H            1 IPE1101   0.0000
    21 H7          -4.3977    13.7962   -36.1721 H            1 IPE1101   0.0000
    22 H8          -6.4773    11.8774   -37.8423 H            1 IPE1101   0.0000
    23 H9          -7.3023    11.1510   -36.5038 H            1 IPE1101   0.0000
@<TRIPOS>BOND
     1    1    2       1
     2    1    3       1
     3    2    7       1
     4    3    4       1
     5    4    5       1
     6    4    6       2
     7    7    8      ar
     8    7    9      ar
     9    7   10       1
    10   10   11       1
    11   11   12      ar
    12   11   13      ar
    13   11   14      ar
    14    1   15       1
    15    1   16       1
    16    3   17       1
    17    3   18       1
    18    5   19       1
    19    5   20       1
    20    5   21       1
    21    6   22       1
    22    6   23       1
@<TRIPOS>SUBSTRUCTURE
     1 IPE1101     1 GROUP             4 A     IPE     0 **** IPE A1101
