@<TRIPOS>MOLECULE
2gj3_FAD_1_ligand
   84    89     1     0     0
SMALL
NO_CHARGES


@<TRIPOS>ATOM
     1 PA          33.5610     3.0690    52.0340 P.3          1 FAD500   0.0000
     2 O1A         32.4940     3.5930    51.0960 O.co2        1 FAD500   0.0000
     3 O2A         33.8720     3.5720    53.3390 O.co2        1 FAD500  -1.0000
     4 O5B         33.1710     1.5350    52.1930 O.3          1 FAD500   0.0000
     5 C5B         34.0690     0.5550    52.7250 C.3          1 FAD500   0.0000
     6 C4B         34.1180    -0.6850    51.8270 C.3          1 FAD500   0.0000
     7 O4B         32.8630    -1.2330    51.6960 O.3          1 FAD500   0.0000
     8 C3B         34.5040    -0.4450    50.3490 C.3          1 FAD500   0.0000
     9 O3B         35.0580    -1.6010    49.8680 O.3          1 FAD500   0.0000
    10 C2B         33.2350    -0.1190    49.6360 C.3          1 FAD500   0.0000
    11 O2B         33.3610    -0.1390    48.2150 O.3          1 FAD500   0.0000
    12 C1B         32.3060    -1.0520    50.3910 C.3          1 FAD500   0.0000
    13 N9A         30.9740    -0.4620    50.5420 N.pl3        1 FAD500   0.0000
    14 C8A         30.6100     0.8390    50.7420 C.2          1 FAD500   0.0000
    15 N7A         29.2770     0.9000    50.9700 N.2          1 FAD500   0.0000
    16 C5A         28.7350    -0.3720    51.0040 C.ar         1 FAD500   0.0000
    17 C6A         27.5140    -0.9380    51.2600 C.ar         1 FAD500   0.0000
    18 N6A         26.5420    -0.0680    51.4630 N.pl3        1 FAD500   0.0000
    19 N1A         27.4240    -2.3060    51.1560 N.ar         1 FAD500   0.0000
    20 C2A         28.5780    -3.0520    51.0420 C.ar         1 FAD500   0.0000
    21 N3A         29.7720    -2.5850    50.7520 N.ar         1 FAD500   0.0000
    22 C4A         29.8440    -1.2890    50.7450 C.ar         1 FAD500   0.0000
    23 N1          33.9410     5.1070    44.1750 N.2          1 FAD500   0.0000
    24 C2          34.8240     5.9770    43.6050 C.2          1 FAD500   0.0000
    25 O2          35.6210     6.6600    44.2560 O.2          1 FAD500   0.0000
    26 N3          34.8940     6.1160    42.2220 N.pl3        1 FAD500   0.0000
    27 C4          34.1570     5.3820    41.3240 C.2          1 FAD500   0.0000
    28 O4          34.2650     5.5470    40.0980 O.2          1 FAD500   0.0000
    29 C4X         33.2520     4.4390    41.9370 C.2          1 FAD500   0.0000
    30 N5          32.4640     3.6340    41.1270 N.2          1 FAD500   0.0000
    31 C5X         31.6570     2.6870    41.7400 C.ar         1 FAD500   0.0000
    32 C6          31.0260     1.7450    40.9360 C.ar         1 FAD500   0.0000
    33 C7          30.1910     0.7640    41.4720 C.ar         1 FAD500   0.0000
    34 C7M         29.5060    -0.2330    40.5810 C.3          1 FAD500   0.0000
    35 C8          30.0020     0.7160    42.8760 C.ar         1 FAD500   0.0000
    36 C8M         29.1200    -0.3460    43.4290 C.3          1 FAD500   0.0000
    37 C9          30.7000     1.6540    43.6720 C.ar         1 FAD500   0.0000
    38 C9A         31.5140     2.6550    43.1250 C.ar         1 FAD500   0.0000
    39 N10         32.2440     3.5540    43.9420 N.pl3        1 FAD500   0.0000
    40 C10         33.1540     4.3740    43.3300 C.2          1 FAD500   0.0000
    41 C1'         32.0290     3.6630    45.4190 C.3          1 FAD500   0.0000
    42 C2'         32.9560     2.7700    46.2220 C.3          1 FAD500   0.0000
    43 O2'         32.2650     1.5260    46.3440 O.3          1 FAD500   0.0000
    44 C3'         33.2650     3.3440    47.5980 C.3          1 FAD500   0.0000
    45 O3'         32.0260     3.6100    48.2540 O.3          1 FAD500   0.0000
    46 C4'         34.0420     4.6780    47.5300 C.3          1 FAD500   0.0000
    47 O4'         35.1490     4.5450    46.6880 O.3          1 FAD500   0.0000
    48 C5'         34.5970     5.1120    48.9360 C.3          1 FAD500   0.0000
    49 O5'         35.5510     4.1250    49.3970 O.3          1 FAD500   0.0000
    50 P           36.0820     3.9670    50.8390 P.3          1 FAD500   0.0000
    51 O1P         37.3960     3.2780    50.9120 O.co2        1 FAD500   0.0000
    52 O2P         35.9560     5.2050    51.5590 O.co2        1 FAD500  -1.0000
    53 O3P         34.9800     2.8560    51.3320 O.3          1 FAD500   0.0000
    54 H5B1        33.7584     0.2869    53.6369 H            1 FAD500   0.0000
    55 H5B2        34.9854     0.9503    52.7878 H            1 FAD500   0.0000
    56 H4B         34.7365    -1.3614    52.2269 H            1 FAD500   0.0000
    57 H3B         35.1527     0.3124    50.2744 H            1 FAD500   0.0000
    58 H5          34.6583    -2.3850    50.3430 H            1 FAD500   0.0000
    59 H2B         32.9857     0.8143    49.8945 H            1 FAD500   0.0000
    60 H7          34.3008    -0.3740    47.9670 H            1 FAD500   0.0000
    61 H1B         32.2420    -1.9311    49.9187 H            1 FAD500   0.0000
    62 H8A         31.2304     1.6230    50.7230 H            1 FAD500   0.0000
    63 H6A1        25.6154    -0.3899    51.6572 H            1 FAD500   0.0000
    64 H6A2        26.7324     0.9129    51.4225 H            1 FAD500   0.0000
    65 H2A         28.4995    -4.0373    51.1936 H            1 FAD500   0.0000
    66 H13         35.5259     6.7989    41.8555 H            1 FAD500   0.0000
    67 H14         31.1744     1.7710    39.9474 H            1 FAD500   0.0000
    68 H7M1        28.9533    -0.8531    41.1378 H            1 FAD500   0.0000
    69 H7M2        28.9159     0.2490    39.9333 H            1 FAD500   0.0000
    70 H7M3        30.1928    -0.7584    40.0789 H            1 FAD500   0.0000
    71 H8M1        29.0788    -0.2602    44.4245 H            1 FAD500   0.0000
    72 H8M2        28.2008    -0.2479    43.0476 H            1 FAD500   0.0000
    73 H8M3        29.4873    -1.2440    43.1868 H            1 FAD500   0.0000
    74 H21         30.6088     1.6006    44.6664 H            1 FAD500   0.0000
    75 H1'1        31.0842     3.4066    45.6230 H            1 FAD500   0.0000
    76 H1'2        32.1837     4.6119    45.6941 H            1 FAD500   0.0000
    77 H2'         33.8083     2.6318    45.7175 H            1 FAD500   0.0000
    78 H25         32.8247     0.8838    46.8677 H            1 FAD500   0.0000
    79 H3'         33.7889     2.6779    48.1289 H            1 FAD500   0.0000
    80 H27         32.1440     3.5110    49.2421 H            1 FAD500   0.0000
    81 H4'         33.4405     5.3941    47.1758 H            1 FAD500   0.0000
    82 H29         34.8868     4.7824    45.7526 H            1 FAD500   0.0000
    83 H5'1        33.8417     5.1771    49.5881 H            1 FAD500   0.0000
    84 H5'2        35.0474     6.0014    48.8577 H            1 FAD500   0.0000
@<TRIPOS>BOND
     1    1    2      ar
     2    1    3      ar
     3    1    4       1
     4    1   53       1
     5    4    5       1
     6    5    6       1
     7    6    7       1
     8    6    8       1
     9    7   12       1
    10    8    9       1
    11    8   10       1
    12   10   11       1
    13   10   12       1
    14   12   13       1
    15   13   14       1
    16   13   22       1
    17   14   15       2
    18   15   16       1
    19   16   17      ar
    20   16   22      ar
    21   17   18       1
    22   17   19      ar
    23   19   20      ar
    24   20   21      ar
    25   21   22      ar
    26   23   24       1
    27   23   40       2
    28   24   25       2
    29   24   26       1
    30   26   27       1
    31   27   28       2
    32   27   29       1
    33   29   30       2
    34   29   40       1
    35   30   31       1
    36   31   32      ar
    37   31   38      ar
    38   32   33      ar
    39   33   34       1
    40   33   35      ar
    41   35   36       1
    42   35   37      ar
    43   37   38      ar
    44   38   39       1
    45   39   40       1
    46   39   41       1
    47   41   42       1
    48   42   43       1
    49   42   44       1
    50   44   45       1
    51   44   46       1
    52   46   47       1
    53   46   48       1
    54   48   49       1
    55   49   50       1
    56   50   51      ar
    57   50   52      ar
    58   50   53       1
    59   48   84       1
    60    5   54       1
    61    5   55       1
    62    6   56       1
    63    8   57       1
    64    9   58       1
    65   10   59       1
    66   11   60       1
    67   12   61       1
    68   14   62       1
    69   18   63       1
    70   18   64       1
    71   20   65       1
    72   26   66       1
    73   32   67       1
    74   34   68       1
    75   34   69       1
    76   34   70       1
    77   36   71       1
    78   36   72       1
    79   36   73       1
    80   37   74       1
    81   41   75       1
    82   41   76       1
    83   42   77       1
    84   43   78       1
    85   44   79       1
    86   45   80       1
    87   46   81       1
    88   47   82       1
    89   48   83       1
@<TRIPOS>SUBSTRUCTURE
     1 FAD500      1 GROUP             4 A     FAD     0 **** FAD A 500
