@<TRIPOS>MOLECULE
2acw_UPG_2_ligand
   58    60     1     0     0
SMALL
NO_CHARGES


@<TRIPOS>ATOM
     1 N1           4.4890    33.2680    -9.1410 N.pl3        1 UPG901   0.0000
     2 C2           4.4820    34.6960    -9.3870 C.2          1 UPG901   0.0000
     3 N3           4.9010    35.4590    -8.3020 N.pl3        1 UPG901   0.0000
     4 C4           5.3160    35.0270    -7.0360 C.2          1 UPG901   0.0000
     5 C5           5.2960    33.5620    -6.8610 C.2          1 UPG901   0.0000
     6 C6           4.8950    32.7700    -7.8920 C.2          1 UPG901   0.0000
     7 O2           4.1360    35.1870   -10.4650 O.2          1 UPG901   0.0000
     8 O4           5.6690    35.7940    -6.1500 O.2          1 UPG901   0.0000
     9 C1C          4.0650    32.3180   -10.2270 C.3          1 UPG901   0.0000
    10 C2C          5.2220    31.7560   -11.0630 C.3          1 UPG901   0.0000
    11 O2C          5.6410    32.5640   -12.1400 O.3          1 UPG901   0.0000
    12 C3C          4.6840    30.3720   -11.3960 C.3          1 UPG901   0.0000
    13 C4C          3.7490    29.9650   -10.2830 C.3          1 UPG901   0.0000
    14 O4C          3.3970    31.2030    -9.6080 O.3          1 UPG901   0.0000
    15 O3C          3.9730    30.4180   -12.6500 O.3          1 UPG901   0.0000
    16 C5C          4.3570    29.0660    -9.2140 C.3          1 UPG901   0.0000
    17 O5C          4.2460    27.7220    -9.6910 O.3          1 UPG901   0.0000
    18 PA           5.2720    26.6520    -9.1730 P.3          1 UPG901   0.0000
    19 O1A          4.9220    25.3920    -9.7780 O.co2        1 UPG901   0.0000
    20 O2A          6.6380    27.0940    -9.3970 O.co2        1 UPG901  -1.0000
    21 O3A          5.0730    26.6700    -7.5900 O.3          1 UPG901   0.0000
    22 PB           3.8480    26.3660    -6.5790 P.3          1 UPG901   0.0000
    23 O1B          2.5390    26.4560    -7.2260 O.co2        1 UPG901   0.0000
    24 O2B          4.0340    27.2800    -5.4160 O.co2        1 UPG901  -1.0000
    25 O3B          4.0790    24.8100    -6.1670 O.3          1 UPG901   0.0000
    26 C1'          3.2100    23.6830    -6.1880 C.3          1 UPG901   0.0000
    27 C2'          4.0680    22.5190    -5.6470 C.3          1 UPG901   0.0000
    28 C3'          5.2980    22.2720    -6.5930 C.3          1 UPG901   0.0000
    29 C4'          4.7150    21.8990    -7.9670 C.3          1 UPG901   0.0000
    30 C5'          3.8390    23.0470    -8.4860 C.3          1 UPG901   0.0000
    31 C6'          3.1940    22.7170    -9.8500 C.3          1 UPG901   0.0000
    32 O2'          4.5120    22.8650    -4.3390 O.3          1 UPG901   0.0000
    33 O3'          6.1120    21.1850    -6.1100 O.3          1 UPG901   0.0000
    34 O4'          5.7760    21.6720    -8.9310 O.3          1 UPG901   0.0000
    35 O5'          2.7350    23.3590    -7.5450 O.3          1 UPG901   0.0000
    36 O6'          2.5950    21.4100    -9.6940 O.3          1 UPG901   0.0000
    37 H1           4.9067    36.4487    -8.4451 H            1 UPG901   0.0000
    38 H2           5.5750    33.1545    -5.9915 H            1 UPG901   0.0000
    39 H3           4.8890    31.7797    -7.7530 H            1 UPG901   0.0000
    40 H1C          3.4224    32.7851   -10.8344 H            1 UPG901   0.0000
    41 H2C          6.0051    31.6366   -10.4527 H            1 UPG901   0.0000
    42 H6           5.9974    31.9843   -12.8727 H            1 UPG901   0.0000
    43 H3C          5.4401    29.7205   -11.4588 H            1 UPG901   0.0000
    44 H4C          2.9290    29.5377   -10.6638 H            1 UPG901   0.0000
    45 H9           4.5942    30.7162   -13.3747 H            1 UPG901   0.0000
    46 H5C1         3.8576    29.1682    -8.3537 H            1 UPG901   0.0000
    47 H5C2         5.3182    29.3023    -9.0716 H            1 UPG901   0.0000
    48 H1'          2.4302    23.8421    -5.5825 H            1 UPG901   0.0000
    49 H2'          3.5118    21.6892    -5.6009 H            1 UPG901   0.0000
    50 H3'          5.8465    23.1048    -6.6675 H            1 UPG901   0.0000
    51 H4'          4.1614    21.0708    -7.8801 H            1 UPG901   0.0000
    52 H5'          4.4092    23.8618    -8.5910 H            1 UPG901   0.0000
    53 H6'1         3.8889    22.6985   -10.5689 H            1 UPG901   0.0000
    54 H6'2         2.4958    23.3954   -10.0787 H            1 UPG901   0.0000
    55 H19          4.1610    23.7693    -4.0962 H            1 UPG901   0.0000
    56 H20          6.1500    20.4640    -6.8019 H            1 UPG901   0.0000
    57 H21          6.0412    20.7080    -8.9140 H            1 UPG901   0.0000
    58 H6'          1.7957    21.3363   -10.2904 H            1 UPG901   0.0000
@<TRIPOS>BOND
     1    1    2       1
     2    1    6       1
     3    1    9       1
     4    2    3       1
     5    2    7       2
     6    3    4       1
     7    4    5       1
     8    4    8       2
     9    5    6       2
    10    9   10       1
    11    9   14       1
    12   10   11       1
    13   10   12       1
    14   12   13       1
    15   12   15       1
    16   13   14       1
    17   13   16       1
    18   16   17       1
    19   17   18       1
    20   18   19      ar
    21   18   20      ar
    22   18   21       1
    23   21   22       1
    24   22   23      ar
    25   22   24      ar
    26   22   25       1
    27   25   26       1
    28   26   27       1
    29   26   35       1
    30   27   28       1
    31   27   32       1
    32   28   29       1
    33   28   33       1
    34   29   30       1
    35   29   34       1
    36   30   31       1
    37   30   35       1
    38   31   36       1
    39    3   37       1
    40    5   38       1
    41    6   39       1
    42    9   40       1
    43   10   41       1
    44   11   42       1
    45   12   43       1
    46   13   44       1
    47   15   45       1
    48   16   46       1
    49   16   47       1
    50   36   58       1
    51   34   57       1
    52   26   48       1
    53   27   49       1
    54   28   50       1
    55   29   51       1
    56   30   52       1
    57   31   53       1
    58   31   54       1
    59   32   55       1
    60   33   56       1
@<TRIPOS>SUBSTRUCTURE
     1 UPG901      1 GROUP             4 B     UPG     0 **** UPG B 901
