@<TRIPOS>MOLECULE
3wxo_NIZ_2_ligand
   17    17     1     0     0
SMALL
NO_CHARGES


@<TRIPOS>ATOM
     1 C           46.9300    17.6890   -89.6100 C.2          1 NIZ803   0.0000
     2 C1          46.6760    16.2070   -89.4540 C.ar         1 NIZ803   0.0000
     3 N1          46.2160    13.4990   -89.1990 N.ar         1 NIZ803   0.0000
     4 O1          46.7130    18.2250   -90.6870 O.2          1 NIZ803   0.0000
     5 C2          46.3030    15.6720   -88.2140 C.ar         1 NIZ803   0.0000
     6 N2          47.3930    18.4060   -88.5760 N.am         1 NIZ803   0.0000
     7 C3          46.0880    14.2970   -88.1100 C.ar         1 NIZ803   0.0000
     8 N3          47.6500    19.7880   -88.6950 N.3          1 NIZ803   0.0000
     9 C4          46.5780    13.9940   -90.4070 C.ar         1 NIZ803   0.0000
    10 C5          46.8170    15.3580   -90.5670 C.ar         1 NIZ803   0.0000
    11 H1          46.1927    16.2655   -87.4168 H            1 NIZ803   0.0000
    12 H2          47.5598    17.9511   -87.7012 H            1 NIZ803   0.0000
    13 H3          45.8382    13.8980   -87.2277 H            1 NIZ803   0.0000
    14 H4          47.9873    20.1407   -87.8222 H            1 NIZ803   0.0000
    15 H5          48.3387    19.9391   -89.4041 H            1 NIZ803   0.0000
    16 H6          46.6743    13.3774   -91.1884 H            1 NIZ803   0.0000
    17 H7          47.0840    15.7266   -91.4574 H            1 NIZ803   0.0000
@<TRIPOS>BOND
     1    1    2       1
     2    1    4       2
     3    1    6      am
     4    2    5      ar
     5    2   10      ar
     6    3    7      ar
     7    3    9      ar
     8    5    7      ar
     9    6    8       1
    10    9   10      ar
    11    5   11       1
    12    6   12       1
    13    7   13       1
    14    8   14       1
    15    8   15       1
    16    9   16       1
    17   10   17       1
@<TRIPOS>SUBSTRUCTURE
     1 NIZ803      1 GROUP             4 A     NIZ     0 **** NIZ A 803
