@<TRIPOS>MOLECULE
3ktl_GTX_1_ligand
   54    53     1     0     0
SMALL
NO_CHARGES


@<TRIPOS>ATOM
     1 N1         -26.1300     6.2300   -13.1380 N.4          1 GTX5100   1.0000
     2 CA1        -26.8360     7.4060   -12.6270 C.3          1 GTX5100   0.0000
     3 C1         -27.4490     6.9750   -11.3320 C.2          1 GTX5100   0.0000
     4 O11        -27.8800     7.8200   -10.4980 O.co2        1 GTX5100   0.0000
     5 O12        -27.4910     5.7370   -11.0650 O.co2        1 GTX5100  -1.0000
     6 CB1        -27.9090     7.7970   -13.6640 C.3          1 GTX5100   0.0000
     7 CG1        -28.6460     9.0720   -13.2620 C.3          1 GTX5100   0.0000
     8 CD1        -29.7170     9.4530   -14.2980 C.2          1 GTX5100   0.0000
     9 OE1        -29.6780     8.7760   -15.5250 O.2          1 GTX5100   0.0000
    10 N2         -30.6500    10.3830   -13.9990 N.am         1 GTX5100   0.0000
    11 CA2        -31.6920    10.8280   -14.9390 C.3          1 GTX5100   0.0000
    12 C2         -31.3290    12.2550   -15.2440 C.2          1 GTX5100   0.0000
    13 O2         -31.0320    13.0620   -14.1820 O.2          1 GTX5100   0.0000
    14 CB2        -33.0750    10.7830   -14.2770 C.3          1 GTX5100   0.0000
    15 SG2        -33.4330     9.0660   -13.8210 S.3          1 GTX5100   0.0000
    16 C1S        -34.3680     8.7720   -15.3620 C.3          1 GTX5100   0.0000
    17 C2S        -35.2500     7.5000   -15.2860 C.3          1 GTX5100   0.0000
    18 C3S        -36.5920     7.6790   -15.9860 C.3          1 GTX5100   0.0000
    19 C4S        -37.1280     6.3170   -16.3610 C.3          1 GTX5100   0.0000
    20 C5S        -37.9840     6.4420   -17.6150 C.3          1 GTX5100   0.0000
    21 C6S        -38.3970     5.0520   -18.0590 C.3          1 GTX5100   0.0000
    22 N3         -31.3220    12.6460   -16.5090 N.am         1 GTX5100   0.0000
    23 CA3        -31.1670    14.0410   -16.9010 C.3          1 GTX5100   0.0000
    24 C3         -29.8530    14.1370   -17.6050 C.2          1 GTX5100   0.0000
    25 O31        -29.5500    15.1990   -18.1750 O.co2        1 GTX5100   0.0000
    26 O32        -29.1120    13.1130   -17.6850 O.co2        1 GTX5100  -1.0000
    27 H1         -25.6949     6.4551   -14.0098 H            1 GTX5100   0.0000
    28 H2         -25.4317     5.9483   -12.4799 H            1 GTX5100   0.0000
    29 HA1        -26.1982     8.1619   -12.4794 H            1 GTX5100   0.0000
    30 HB11       -28.5707     7.0514   -13.7423 H            1 GTX5100   0.0000
    31 HB12       -27.4663     7.9440   -14.5485 H            1 GTX5100   0.0000
    32 HG11       -27.9858     9.8193   -13.1870 H            1 GTX5100   0.0000
    33 HG12       -29.0873     8.9270   -12.3764 H            1 GTX5100   0.0000
    34 H8         -30.6319    10.7926   -13.0869 H            1 GTX5100   0.0000
    35 HA2        -31.6791    10.2734   -15.7710 H            1 GTX5100   0.0000
    36 HB21       -33.7675    11.1139   -14.9180 H            1 GTX5100   0.0000
    37 HB22       -33.0768    11.3575   -13.4585 H            1 GTX5100   0.0000
    38 H1S1       -33.7194     8.6682   -16.1160 H            1 GTX5100   0.0000
    39 H1S2       -34.9572     9.5612   -15.5354 H            1 GTX5100   0.0000
    40 H2S1       -35.4163     7.2818   -14.3244 H            1 GTX5100   0.0000
    41 H2S2       -34.7603     6.7436   -15.7196 H            1 GTX5100   0.0000
    42 H3S1       -36.4704     8.2315   -16.8106 H            1 GTX5100   0.0000
    43 H3S2       -37.2344     8.1357   -15.3705 H            1 GTX5100   0.0000
    44 H4S1       -37.6840     5.9585   -15.6111 H            1 GTX5100   0.0000
    45 H4S2       -36.3654     5.6947   -16.5375 H            1 GTX5100   0.0000
    46 H5S1       -37.4566     6.8846   -18.3402 H            1 GTX5100   0.0000
    47 H5S2       -38.7979     6.9874   -17.4144 H            1 GTX5100   0.0000
    48 H6S1       -38.9603     5.1188   -18.8825 H            1 GTX5100   0.0000
    49 H6S2       -37.5809     4.5089   -18.2565 H            1 GTX5100   0.0000
    50 H6S3       -38.9221     4.6117   -17.3307 H            1 GTX5100   0.0000
    51 H25        -31.4274    11.9557   -17.2248 H            1 GTX5100   0.0000
    52 HA31       -31.1703    14.6299   -16.0928 H            1 GTX5100   0.0000
    53 HA32       -31.9087    14.3125   -17.5143 H            1 GTX5100   0.0000
    54 H28        -26.7810     5.4831   -13.2734 H            1 GTX5100   0.0000
@<TRIPOS>BOND
     1    1    2       1
     2    2    3       1
     3    2    6       1
     4    3    4      ar
     5    3    5      ar
     6    6    7       1
     7    7    8       1
     8    8    9       2
     9    8   10      am
    10   10   11       1
    11   11   12       1
    12   11   14       1
    13   12   13       2
    14   12   22      am
    15   14   15       1
    16   15   16       1
    17   16   17       1
    18   17   18       1
    19   18   19       1
    20   19   20       1
    21   20   21       1
    22   22   23       1
    23   23   24       1
    24   24   25      ar
    25   24   26      ar
    26    1   27       1
    27    1   28       1
    28    2   29       1
    29    1   54       1
    30    6   30       1
    31    6   31       1
    32    7   32       1
    33    7   33       1
    34   10   34       1
    35   11   35       1
    36   14   36       1
    37   14   37       1
    38   16   38       1
    39   16   39       1
    40   17   40       1
    41   17   41       1
    42   18   42       1
    43   18   43       1
    44   19   44       1
    45   19   45       1
    46   20   46       1
    47   20   47       1
    48   21   48       1
    49   21   49       1
    50   21   50       1
    51   22   51       1
    52   23   52       1
    53   23   53       1
@<TRIPOS>SUBSTRUCTURE
     1 GTX5100     1 GROUP             4 A     GTX     0 **** GTX A5100
