@<TRIPOS>MOLECULE
2pmi_AGS_1_ligand
   43    45     1     0     0
SMALL
NO_CHARGES


@<TRIPOS>ATOM
     1 PG         -77.1950    22.3270    -3.5060 P.3          1 AGS3001   0.0000
     2 S1G        -78.9610    22.7100    -3.0260 S.2          1 AGS3001   0.0000
     3 O2G        -77.0130    20.7270    -3.4350 O.co2        1 AGS3001  -1.0000
     4 O3G        -76.1890    23.0200    -2.4520 O.co2        1 AGS3001  -1.0000
     5 PB         -77.6000    23.9260    -5.7880 P.3          1 AGS3001   0.0000
     6 O1B        -78.1270    24.9410    -4.8480 O.co2        1 AGS3001   0.0000
     7 O2B        -76.5340    24.7290    -6.7020 O.co2        1 AGS3001  -1.0000
     8 O3B        -76.7790    22.7630    -5.0130 O.3          1 AGS3001   0.0000
     9 PA         -79.5600    21.9340    -6.5260 P.3          1 AGS3001   0.0000
    10 O1A        -79.3430    21.2580    -7.8200 O.co2        1 AGS3001   0.0000
    11 O2A        -78.8470    20.9130    -5.4970 O.co2        1 AGS3001  -1.0000
    12 O3A        -78.8610    23.3990    -6.6760 O.3          1 AGS3001   0.0000
    13 O5'        -81.1670    22.0840    -6.3660 O.3          1 AGS3001   0.0000
    14 C5'        -81.6900    21.0750    -5.4920 C.3          1 AGS3001   0.0000
    15 C4'        -82.5450    19.9550    -6.1190 C.3          1 AGS3001   0.0000
    16 O4'        -82.8230    19.9670    -7.5420 O.3          1 AGS3001   0.0000
    17 C3'        -82.1050    18.5000    -5.8140 C.3          1 AGS3001   0.0000
    18 O3'        -80.7070    18.2180    -6.0040 O.3          1 AGS3001   0.0000
    19 C2'        -82.9840    17.6890    -6.7990 C.3          1 AGS3001   0.0000
    20 O2'        -84.2800    17.3770    -6.2710 O.3          1 AGS3001   0.0000
    21 C1'        -83.0860    18.6170    -8.0320 C.3          1 AGS3001   0.0000
    22 N9         -82.1140    18.2120    -9.0760 N.pl3        1 AGS3001   0.0000
    23 C8         -81.1010    18.9680    -9.5950 C.2          1 AGS3001   0.0000
    24 N7         -80.4050    18.3310   -10.4860 N.2          1 AGS3001   0.0000
    25 C5         -80.9250    17.0950   -10.6230 C.ar         1 AGS3001   0.0000
    26 C6         -80.6380    15.9410   -11.4000 C.ar         1 AGS3001   0.0000
    27 N6         -79.5770    15.9240   -12.2930 N.pl3        1 AGS3001   0.0000
    28 N1         -81.4130    14.8530   -11.2630 N.ar         1 AGS3001   0.0000
    29 C2         -82.4490    14.8140   -10.4220 C.ar         1 AGS3001   0.0000
    30 N3         -82.7340    15.8770    -9.6770 N.ar         1 AGS3001   0.0000
    31 C4         -82.0250    17.0110    -9.7350 C.ar         1 AGS3001   0.0000
    32 H5'1       -82.2565    21.5361    -4.8090 H            1 AGS3001   0.0000
    33 H5'2       -80.9118    20.6389    -5.0401 H            1 AGS3001   0.0000
    34 H4'        -83.4410    20.0459    -5.6843 H            1 AGS3001   0.0000
    35 H3'        -82.3627    18.2683    -4.8760 H            1 AGS3001   0.0000
    36 H5         -80.1734    19.0457    -5.8302 H            1 AGS3001   0.0000
    37 H2'        -82.5125    16.8444    -7.0525 H            1 AGS3001   0.0000
    38 H7         -84.7991    16.8555    -6.9482 H            1 AGS3001   0.0000
    39 H1'        -84.0126    18.5733    -8.4054 H            1 AGS3001   0.0000
    40 H9         -80.9159    19.9109    -9.3180 H            1 AGS3001   0.0000
    41 H10        -79.3900    15.1025   -12.8317 H            1 AGS3001   0.0000
    42 H11        -78.9990    16.7332   -12.3982 H            1 AGS3001   0.0000
    43 H12        -83.0085    13.9881   -10.3529 H            1 AGS3001   0.0000
@<TRIPOS>BOND
     1    1    2       2
     2    1    3      ar
     3    1    4      ar
     4    1    8       1
     5    5    6      ar
     6    5    7      ar
     7    5    8       1
     8    5   12       1
     9    9   10      ar
    10    9   11      ar
    11    9   12       1
    12    9   13       1
    13   13   14       1
    14   14   15       1
    15   15   16       1
    16   15   17       1
    17   16   21       1
    18   17   18       1
    19   17   19       1
    20   19   20       1
    21   19   21       1
    22   21   22       1
    23   22   23       1
    24   22   31       1
    25   23   24       2
    26   24   25       1
    27   25   26      ar
    28   25   31      ar
    29   26   27       1
    30   26   28      ar
    31   28   29      ar
    32   29   30      ar
    33   30   31      ar
    34   29   43       1
    35   27   42       1
    36   27   41       1
    37   23   40       1
    38   14   32       1
    39   14   33       1
    40   15   34       1
    41   17   35       1
    42   18   36       1
    43   19   37       1
    44   20   38       1
    45   21   39       1
@<TRIPOS>SUBSTRUCTURE
     1 AGS3001     1 GROUP             4 A     AGS     0 **** AGS A3001
