@<TRIPOS>MOLECULE
4x8o_AP5_1_ligand
   81    86     1     0     0
SMALL
NO_CHARGES


@<TRIPOS>ATOM
     1 PA         -18.7680    13.6850   -33.5920 P.3          1 AP5301   0.0000
     2 O1A        -17.4400    13.6230   -32.9040 O.co2        1 AP5301   0.0000
     3 O2A        -19.6640    14.6560   -32.8870 O.co2        1 AP5301  -1.0000
     4 O3A        -18.6030    14.0720   -35.1050 O.3          1 AP5301   0.0000
     5 PB         -18.2660    15.5500   -35.6940 P.3          1 AP5301   0.0000
     6 O1B        -17.4230    15.3670   -36.9470 O.co2        1 AP5301   0.0000
     7 O2B        -17.5180    16.3750   -34.6700 O.co2        1 AP5301  -1.0000
     8 O3B        -19.6100    16.2360   -36.0480 O.3          1 AP5301   0.0000
     9 PG         -19.8050    17.8210   -36.2100 P.3          1 AP5301   0.0000
    10 O1G        -18.4750    18.4750   -36.6270 O.co2        1 AP5301   0.0000
    11 O2G        -20.2800    18.4160   -34.8680 O.co2        1 AP5301  -1.0000
    12 O3G        -20.8950    18.0480   -37.3960 O.3          1 AP5301   0.0000
    13 PD         -22.2250    18.9490   -37.2750 P.3          1 AP5301   0.0000
    14 O1D        -23.3620    18.0590   -36.8900 O.co2        1 AP5301   0.0000
    15 O2D        -22.5040    19.5830   -38.6270 O.co2        1 AP5301  -1.0000
    16 O3D        -22.0600    20.0310   -36.1570 O.3          1 AP5301   0.0000
    17 PE         -21.3000    21.4220   -36.2420 P.3          1 AP5301   0.0000
    18 O1E        -19.9280    21.2600   -36.8590 O.co2        1 AP5301   0.0000
    19 O2E        -21.1570    21.9730   -34.8380 O.co2        1 AP5301  -1.0000
    20 O5F        -19.4300    12.2110   -33.6000 O.3          1 AP5301   0.0000
    21 C5F        -20.7450    12.0490   -34.1020 C.3          1 AP5301   0.0000
    22 C4F        -21.4820    10.9800   -33.2530 C.3          1 AP5301   0.0000
    23 O4F        -21.0160     9.8080   -33.5200 O.3          1 AP5301   0.0000
    24 C3F        -21.2180    11.2210   -31.7600 C.3          1 AP5301   0.0000
    25 O3F        -22.3360    10.9430   -31.0250 O.3          1 AP5301   0.0000
    26 C2F        -20.0610    10.2600   -31.4050 C.3          1 AP5301   0.0000
    27 O2F        -20.1790     9.8060   -29.9960 O.3          1 AP5301   0.0000
    28 C1F        -20.1730     9.2810   -32.2300 C.3          1 AP5301   0.0000
    29 N9A        -18.9080     8.8280   -32.6840 N.pl3        1 AP5301   0.0000
    30 C8A        -17.7780     9.5640   -32.8350 C.2          1 AP5301   0.0000
    31 N7A        -16.8010     8.7420   -33.2990 N.2          1 AP5301   0.0000
    32 C5A        -17.3310     7.4910   -33.4400 C.ar         1 AP5301   0.0000
    33 C6A        -16.7870     6.2990   -33.8690 C.ar         1 AP5301   0.0000
    34 N6A        -15.4250     5.9650   -34.3270 N.pl3        1 AP5301   0.0000
    35 N1A        -17.5550     5.1800   -33.9130 N.ar         1 AP5301   0.0000
    36 C2A        -18.8650     5.2260   -33.5360 C.ar         1 AP5301   0.0000
    37 N3A        -19.4050     6.3990   -33.1130 N.ar         1 AP5301   0.0000
    38 C4A        -18.6280     7.5410   -33.0660 C.ar         1 AP5301   0.0000
    39 O5J        -22.1620    22.4500   -37.0960 O.3          1 AP5301   0.0000
    40 C5J        -23.4150    22.8580   -36.5540 C.3          1 AP5301   0.0000
    41 C4J        -23.8050    24.2660   -37.1510 C.3          1 AP5301   0.0000
    42 O4J        -23.0130    25.1890   -36.6990 O.3          1 AP5301   0.0000
    43 C3J        -23.5920    24.2640   -38.6710 C.3          1 AP5301   0.0000
    44 O3J        -24.6920    23.8130   -39.2900 O.3          1 AP5301   0.0000
    45 C2J        -23.3490    25.7540   -38.9590 C.3          1 AP5301   0.0000
    46 O2J        -24.6830    26.4620   -39.0520 O.3          1 AP5301   0.0000
    47 C1J        -22.6980    26.2010   -37.9230 C.3          1 AP5301   0.0000
    48 N9B        -21.3050    26.2200   -38.1100 N.pl3        1 AP5301   0.0000
    49 C8B        -20.3890    25.5940   -37.3550 C.2          1 AP5301   0.0000
    50 N7B        -19.1500    25.8700   -37.8650 N.2          1 AP5301   0.0000
    51 C5B        -19.3160    26.6750   -38.9460 C.ar         1 AP5301   0.0000
    52 C6B        -18.4040    27.2440   -39.8140 C.ar         1 AP5301   0.0000
    53 N6B        -16.9770    27.2470   -39.9790 N.pl3        1 AP5301   0.0000
    54 N1B        -18.8360    28.0280   -40.8340 N.ar         1 AP5301   0.0000
    55 C2B        -20.1660    28.2540   -40.9960 C.ar         1 AP5301   0.0000
    56 N3B        -21.0690    27.6920   -40.1320 N.ar         1 AP5301   0.0000
    57 C4B        -20.6430    26.9020   -39.1070 C.ar         1 AP5301   0.0000
    58 H5F1       -20.7054    11.7507   -35.0557 H            1 AP5301   0.0000
    59 H5F2       -21.2351    12.9188   -34.0449 H            1 AP5301   0.0000
    60 H4F        -22.4642    11.0104   -33.4383 H            1 AP5301   0.0000
    61 H3F        -20.9355    12.1685   -31.6100 H            1 AP5301   0.0000
    62 H5         -22.0668    10.6272   -30.1152 H            1 AP5301   0.0000
    63 H2F        -19.1836    10.7201   -31.5411 H            1 AP5301   0.0000
    64 H7         -19.3622    10.0796   -29.4881 H            1 AP5301   0.0000
    65 H1F        -20.6633     8.5270   -31.7928 H            1 AP5301   0.0000
    66 H8A        -17.6814    10.5399   -32.6392 H            1 AP5301   0.0000
    67 H6A1       -15.2064     5.0298   -34.6054 H            1 AP5301   0.0000
    68 H6A2       -14.7204     6.6738   -34.3590 H            1 AP5301   0.0000
    69 H2A        -19.4263     4.3991   -33.5708 H            1 AP5301   0.0000
    70 H5J1       -23.3430    22.9250   -35.5588 H            1 AP5301   0.0000
    71 H5J2       -24.1171    22.1873   -36.7930 H            1 AP5301   0.0000
    72 H4J        -24.7559    24.4855   -36.9329 H            1 AP5301   0.0000
    73 H3J        -22.7925    23.7170   -38.9192 H            1 AP5301   0.0000
    74 H17        -25.3883    23.5860   -38.6091 H            1 AP5301   0.0000
    75 H2J        -22.8179    25.8762   -39.7975 H            1 AP5301   0.0000
    76 H19        -25.0049    26.4435   -39.9986 H            1 AP5301   0.0000
    77 H1J        -23.0200    27.1193   -37.6928 H            1 AP5301   0.0000
    78 H8B        -20.5796    25.0234   -36.5562 H            1 AP5301   0.0000
    79 H6B1       -16.5610    27.7669   -40.7251 H            1 AP5301   0.0000
    80 H6B2       -16.3996    26.7291   -39.3478 H            1 AP5301   0.0000
    81 H2B        -20.4864    28.8314   -41.7470 H            1 AP5301   0.0000
@<TRIPOS>BOND
     1    1    2      ar
     2    1    3      ar
     3    1    4       1
     4    1   20       1
     5    4    5       1
     6    5    6      ar
     7    5    7      ar
     8    5    8       1
     9    8    9       1
    10    9   10      ar
    11    9   11      ar
    12    9   12       1
    13   12   13       1
    14   13   14      ar
    15   13   15      ar
    16   13   16       1
    17   16   17       1
    18   17   18      ar
    19   17   19      ar
    20   17   39       1
    21   20   21       1
    22   21   22       1
    23   22   23       1
    24   22   24       1
    25   23   28       1
    26   24   25       1
    27   24   26       1
    28   26   27       1
    29   26   28       1
    30   28   29       1
    31   29   30       1
    32   29   38       1
    33   30   31       2
    34   31   32       1
    35   32   33      ar
    36   32   38      ar
    37   33   34       1
    38   33   35      ar
    39   35   36      ar
    40   36   37      ar
    41   37   38      ar
    42   39   40       1
    43   40   41       1
    44   41   42       1
    45   41   43       1
    46   42   47       1
    47   43   44       1
    48   43   45       1
    49   45   46       1
    50   45   47       1
    51   47   48       1
    52   48   49       1
    53   48   57       1
    54   49   50       2
    55   50   51       1
    56   51   52      ar
    57   51   57      ar
    58   52   53       1
    59   52   54      ar
    60   54   55      ar
    61   55   56      ar
    62   56   57      ar
    63   55   81       1
    64   53   80       1
    65   53   79       1
    66   49   78       1
    67   47   77       1
    68   21   58       1
    69   21   59       1
    70   22   60       1
    71   24   61       1
    72   25   62       1
    73   26   63       1
    74   27   64       1
    75   28   65       1
    76   30   66       1
    77   34   67       1
    78   34   68       1
    79   36   69       1
    80   40   70       1
    81   40   71       1
    82   41   72       1
    83   43   73       1
    84   44   74       1
    85   45   75       1
    86   46   76       1
@<TRIPOS>SUBSTRUCTURE
     1 AP5301      1 GROUP             4 A     AP5     0 **** AP5 A 301
