@<TRIPOS>MOLECULE
2mt9_FMN_1_ligand
   50    52     1     0     0
SMALL
NO_CHARGES


@<TRIPOS>ATOM
     1 N1          -5.0460    13.0460   -31.4660 N.2          1 FMN201   0.0000
     2 C2          -5.4020    11.7770   -31.8140 C.2          1 FMN201   0.0000
     3 O2          -6.4000    11.2790   -31.3570 O.2          1 FMN201   0.0000
     4 N3          -4.6420    11.0560   -32.6450 N.pl3        1 FMN201   0.0000
     5 C4          -3.5590    11.5430   -33.2710 C.2          1 FMN201   0.0000
     6 O4          -2.9290    10.7970   -34.0020 O.2          1 FMN201   0.0000
     7 C4A         -3.2490    12.9570   -32.9840 C.2          1 FMN201   0.0000
     8 N5          -2.1760    13.6200   -33.6420 N.2          1 FMN201   0.0000
     9 C5A         -1.9850    15.0230   -33.3660 C.ar         1 FMN201   0.0000
    10 C6          -1.1280    15.7460   -34.1900 C.ar         1 FMN201   0.0000
    11 C7          -0.8750    17.0950   -33.9560 C.ar         1 FMN201   0.0000
    12 C7M          0.0610    17.8490   -34.8930 C.3          1 FMN201   0.0000
    13 C8          -1.4910    17.7290   -32.8720 C.ar         1 FMN201   0.0000
    14 C8M         -1.2640    19.2060   -32.5740 C.3          1 FMN201   0.0000
    15 C9          -2.3800    17.0110   -32.0680 C.ar         1 FMN201   0.0000
    16 C9A         -2.6650    15.6580   -32.3100 C.ar         1 FMN201   0.0000
    17 N10         -3.6150    14.9470   -31.5840 N.pl3        1 FMN201   0.0000
    18 C10         -3.9960    13.6820   -31.9910 C.2          1 FMN201   0.0000
    19 C1'         -4.1980    15.5220   -30.3440 C.3          1 FMN201   0.0000
    20 C2'         -3.2040    15.3600   -29.1720 C.3          1 FMN201   0.0000
    21 O2'         -2.9120    13.9750   -28.9820 O.3          1 FMN201   0.0000
    22 C3'         -3.7860    15.8700   -27.8350 C.3          1 FMN201   0.0000
    23 O3'         -3.9250    17.2900   -27.8280 O.3          1 FMN201   0.0000
    24 C4'         -2.8980    15.4870   -26.6320 C.3          1 FMN201   0.0000
    25 O4'         -3.4820    16.0760   -25.4720 O.3          1 FMN201   0.0000
    26 C5'         -1.4350    15.9630   -26.7080 C.3          1 FMN201   0.0000
    27 O5'         -0.9050    15.8390   -25.3540 O.3          1 FMN201   0.0000
    28 P            0.4670    16.5340   -24.9630 P.3          1 FMN201   0.0000
    29 O1P          0.6110    17.7640   -25.7230 O.co2        1 FMN201   0.0000
    30 O2P          1.6290    15.7090   -25.3210 O.co2        1 FMN201  -1.0000
    31 O3P          0.5060    16.8340   -23.5310 O.co2        1 FMN201  -1.0000
    32 H1          -4.8941    10.1023   -32.8090 H            1 FMN201   0.0000
    33 H2          -0.6868    15.2894   -34.9626 H            1 FMN201   0.0000
    34 H7M1         0.1385    18.7997   -34.5927 H            1 FMN201   0.0000
    35 H7M2         0.9642    17.4200   -34.8781 H            1 FMN201   0.0000
    36 H7M3        -0.3056    17.8221   -35.8230 H            1 FMN201   0.0000
    37 H8M1        -1.7890    19.4671   -31.7640 H            1 FMN201   0.0000
    38 H8M2        -0.2912    19.3667   -32.4068 H            1 FMN201   0.0000
    39 H8M3        -1.5628    19.7535   -33.3556 H            1 FMN201   0.0000
    40 H9          -2.8246    17.4728   -31.3005 H            1 FMN201   0.0000
    41 H1'1        -5.0491    15.0447   -30.1254 H            1 FMN201   0.0000
    42 H1'2        -4.3876    16.4935   -30.4862 H            1 FMN201   0.0000
    43 H2'         -2.3597    15.8542   -29.3791 H            1 FMN201   0.0000
    44 H13         -2.5063    13.6023   -29.8166 H            1 FMN201   0.0000
    45 H3'         -4.6896    15.4617   -27.7056 H            1 FMN201   0.0000
    46 H15         -4.3032    17.5836   -26.9501 H            1 FMN201   0.0000
    47 H4'         -2.9081    14.4925   -26.5280 H            1 FMN201   0.0000
    48 H17         -2.7647    16.2856   -24.8075 H            1 FMN201   0.0000
    49 H5'1        -1.3939    16.9148   -27.0121 H            1 FMN201   0.0000
    50 H5'2        -0.9144    15.3885   -27.3396 H            1 FMN201   0.0000
@<TRIPOS>BOND
     1    1    2       1
     2    1   18       2
     3    2    3       2
     4    2    4       1
     5    4    5       1
     6    5    6       2
     7    5    7       1
     8    7    8       2
     9    7   18       1
    10    8    9       1
    11    9   10      ar
    12    9   16      ar
    13   10   11      ar
    14   11   12       1
    15   11   13      ar
    16   13   14       1
    17   13   15      ar
    18   15   16      ar
    19   16   17       1
    20   17   18       1
    21   17   19       1
    22   19   20       1
    23   20   21       1
    24   20   22       1
    25   22   23       1
    26   22   24       1
    27   24   25       1
    28   24   26       1
    29   26   27       1
    30   27   28       1
    31   28   29      ar
    32   28   30      ar
    33   28   31      ar
    34    4   32       1
    35   10   33       1
    36   12   34       1
    37   12   35       1
    38   12   36       1
    39   14   37       1
    40   14   38       1
    41   14   39       1
    42   15   40       1
    43   19   41       1
    44   19   42       1
    45   20   43       1
    46   21   44       1
    47   22   45       1
    48   23   46       1
    49   24   47       1
    50   25   48       1
    51   26   49       1
    52   26   50       1
@<TRIPOS>SUBSTRUCTURE
     1 FMN201      1 GROUP             4 A     FMN     0 **** FMN A 201
