@<TRIPOS>MOLECULE
4u3j_GTP_2_ligand
   44    46     1     0     0
SMALL
NO_CHARGES


@<TRIPOS>ATOM
     1 PG         -60.5640   -70.0610    36.1070 P.3          1 GTP502   0.0000
     2 O1G        -59.7600   -70.4000    34.8750 O.co2        1 GTP502   0.0000
     3 O2G        -60.5680   -71.2600    37.0250 O.co2        1 GTP502  -1.0000
     4 O3G        -61.9750   -69.7170    35.6920 O.co2        1 GTP502  -1.0000
     5 O3B        -59.8620   -68.8140    36.8560 O.3          1 GTP502   0.0000
     6 PB         -60.7540   -67.6130    37.4570 P.3          1 GTP502   0.0000
     7 O1B        -59.8840   -66.4640    37.9060 O.co2        1 GTP502   0.0000
     8 O2B        -61.7830   -67.1420    36.4600 O.co2        1 GTP502  -1.0000
     9 O3A        -61.4850   -68.2900    38.7220 O.3          1 GTP502   0.0000
    10 PA         -61.4450   -67.6930    40.2220 P.3          1 GTP502   0.0000
    11 O1A        -62.2950   -66.4470    40.2430 O.co2        1 GTP502   0.0000
    12 O2A        -61.9610   -68.7220    41.1970 O.co2        1 GTP502  -1.0000
    13 O5'        -59.9320   -67.2990    40.6110 O.3          1 GTP502   0.0000
    14 C5'        -59.3860   -67.7960    41.8210 C.3          1 GTP502   0.0000
    15 C4'        -59.5900   -66.8410    43.0000 C.3          1 GTP502   0.0000
    16 O4'        -60.7980   -66.1140    42.8830 O.3          1 GTP502   0.0000
    17 C3'        -59.6730   -67.5680    44.3350 C.3          1 GTP502   0.0000
    18 O3'        -58.4480   -67.4800    45.0290 O.3          1 GTP502   0.0000
    19 C2'        -60.7860   -66.8850    45.1120 C.3          1 GTP502   0.0000
    20 O2'        -60.2920   -66.3170    46.3070 O.3          1 GTP502   0.0000
    21 C1'        -61.3550   -65.8400    44.1580 C.3          1 GTP502   0.0000
    22 N9         -62.8300   -65.9090    44.0870 N.pl3        1 GTP502   0.0000
    23 C8         -63.5690   -66.7870    43.3360 C.2          1 GTP502   0.0000
    24 N7         -64.8810   -66.5240    43.5240 N.2          1 GTP502   0.0000
    25 C5         -64.9960   -65.4850    44.3780 C.2          1 GTP502   0.0000
    26 C6         -66.1010   -64.8230    44.8990 C.2          1 GTP502   0.0000
    27 O6         -67.2370   -65.1740    44.5840 O.2          1 GTP502   0.0000
    28 N1         -65.9170   -63.7710    45.7720 N.pl3        1 GTP502   0.0000
    29 C2         -64.6390   -63.3840    46.1200 C.2          1 GTP502   0.0000
    30 N2         -64.4650   -62.3690    46.9620 N.pl3        1 GTP502   0.0000
    31 N3         -63.5450   -64.0470    45.5980 N.2          1 GTP502   0.0000
    32 C4         -63.7160   -65.0830    44.7390 C.2          1 GTP502   0.0000
    33 H5'1       -58.4048   -67.9408    41.6931 H            1 GTP502   0.0000
    34 H5'2       -59.8263   -68.6677    42.0360 H            1 GTP502   0.0000
    35 H4'        -58.8262   -66.1963    43.0298 H            1 GTP502   0.0000
    36 H3'        -59.9070   -68.5283    44.1829 H            1 GTP502   0.0000
    37 H5         -57.8665   -68.2540    44.7783 H            1 GTP502   0.0000
    38 H2'        -61.4957   -67.5543    45.3319 H            1 GTP502   0.0000
    39 H7         -59.3099   -66.4916    46.3780 H            1 GTP502   0.0000
    40 H1'        -61.0763   -64.9271    44.4562 H            1 GTP502   0.0000
    41 H9         -63.1978   -67.5041    42.7461 H            1 GTP502   0.0000
    42 H10        -66.7074   -63.2902    46.1516 H            1 GTP502   0.0000
    43 H11        -63.5411   -62.0842    47.2177 H            1 GTP502   0.0000
    44 H12        -65.2581   -61.8907    47.3393 H            1 GTP502   0.0000
@<TRIPOS>BOND
     1    1    2      ar
     2    1    3      ar
     3    1    4      ar
     4    1    5       1
     5    5    6       1
     6    6    7      ar
     7    6    8      ar
     8    6    9       1
     9    9   10       1
    10   10   11      ar
    11   10   12      ar
    12   10   13       1
    13   13   14       1
    14   14   15       1
    15   15   16       1
    16   15   17       1
    17   16   21       1
    18   17   18       1
    19   17   19       1
    20   19   20       1
    21   19   21       1
    22   21   22       1
    23   22   23       1
    24   22   32       1
    25   23   24       2
    26   24   25       1
    27   25   26       1
    28   25   32       2
    29   26   27       2
    30   26   28       1
    31   28   29       1
    32   29   30       1
    33   29   31       2
    34   31   32       1
    35   30   44       1
    36   30   43       1
    37   28   42       1
    38   23   41       1
    39   14   33       1
    40   14   34       1
    41   15   35       1
    42   17   36       1
    43   18   37       1
    44   19   38       1
    45   20   39       1
    46   21   40       1
@<TRIPOS>SUBSTRUCTURE
     1 GTP502      1 GROUP             4 B     GTP     0 **** GTP B 502
