@<TRIPOS>MOLECULE
2zgz_GNP_2_ligand
   45    47     1     0     0
SMALL
NO_CHARGES


@<TRIPOS>ATOM
     1 PG          -2.8120    18.5030   -11.1400 P.3          1 GNP323   0.0000
     2 O1G         -2.9190    18.0610   -12.5450 O.co2        1 GNP323   0.0000
     3 O2G         -3.8980    19.3940   -10.8200 O.co2        1 GNP323  -1.0000
     4 O3G         -1.6080    19.4580   -11.0280 O.co2        1 GNP323  -1.0000
     5 N3B         -2.5700    17.2360   -10.1630 N.3          1 GNP323   0.0000
     6 PB          -2.3650    17.2980    -8.5460 P.3          1 GNP323   0.0000
     7 O1B         -1.3610    18.2570    -8.1090 O.co2        1 GNP323   0.0000
     8 O2B         -3.5540    17.3440    -7.7090 O.co2        1 GNP323  -1.0000
     9 O3A         -1.7550    15.8620    -8.2190 O.3          1 GNP323   0.0000
    10 PA          -0.2730    15.5140    -7.6690 P.3          1 GNP323   0.0000
    11 O1A         -0.1380    16.0210    -6.2630 O.co2        1 GNP323   0.0000
    12 O2A          0.7760    15.8640    -8.6550 O.co2        1 GNP323  -1.0000
    13 O5'         -0.3950    13.9180    -7.5720 O.3          1 GNP323   0.0000
    14 C5'         -0.5380    13.1420    -8.7920 C.3          1 GNP323   0.0000
    15 C4'         -0.8580    11.6470    -8.5170 C.3          1 GNP323   0.0000
    16 O4'          0.3630    10.9370    -8.1820 O.3          1 GNP323   0.0000
    17 C3'         -1.8460    11.3930    -7.3560 C.3          1 GNP323   0.0000
    18 O3'         -2.8310    10.3900    -7.6790 O.3          1 GNP323   0.0000
    19 C2'         -0.9210    11.0020    -6.2180 C.3          1 GNP323   0.0000
    20 O2'         -1.4970    10.1060    -5.2840 O.3          1 GNP323   0.0000
    21 C1'          0.1850    10.2400    -6.9450 C.3          1 GNP323   0.0000
    22 N9           1.4810    10.2140    -6.2170 N.pl3        1 GNP323   0.0000
    23 C8           1.9340    10.9810    -5.1540 C.2          1 GNP323   0.0000
    24 N7           3.1330    10.7070    -4.7530 N.2          1 GNP323   0.0000
    25 C5           3.5440     9.6600    -5.6110 C.2          1 GNP323   0.0000
    26 C6           4.7940     8.9020    -5.6900 C.2          1 GNP323   0.0000
    27 O6           5.8130     9.0060    -4.9990 O.2          1 GNP323   0.0000
    28 N1           4.7750     7.9460    -6.7040 N.pl3        1 GNP323   0.0000
    29 C2           3.7110     7.7000    -7.5680 C.2          1 GNP323   0.0000
    30 N2           3.8650     6.7400    -8.4910 N.pl3        1 GNP323   0.0000
    31 N3           2.5480     8.3970    -7.5010 N.2          1 GNP323   0.0000
    32 C4           2.5270     9.3570    -6.5080 C.2          1 GNP323   0.0000
    33 H3B         -3.3612    16.6410   -10.3043 H            1 GNP323   0.0000
    34 H5'1         0.3168    13.1966    -9.3080 H            1 GNP323   0.0000
    35 H5'2        -1.2808    13.5336    -9.3351 H            1 GNP323   0.0000
    36 H4'         -1.2389    11.2462    -9.3503 H            1 GNP323   0.0000
    37 H3'         -2.3099    12.2482    -7.1248 H            1 GNP323   0.0000
    38 H6          -2.4880     9.4886    -7.4145 H            1 GNP323   0.0000
    39 H2'         -0.5558    11.8119    -5.7590 H            1 GNP323   0.0000
    40 H8          -2.4842    10.2591    -5.2404 H            1 GNP323   0.0000
    41 H1'         -0.1163     9.3041    -7.1275 H            1 GNP323   0.0000
    42 H10          1.3752    11.6931    -4.7290 H            1 GNP323   0.0000
    43 H11          5.5967     7.3883    -6.8213 H            1 GNP323   0.0000
    44 H12          3.1222     6.5356    -9.1286 H            1 GNP323   0.0000
    45 H13          4.7227     6.2283    -8.5419 H            1 GNP323   0.0000
@<TRIPOS>BOND
     1    1    2      ar
     2    1    3      ar
     3    1    4      ar
     4    1    5       1
     5    5    6       1
     6    6    7      ar
     7    6    8      ar
     8    6    9       1
     9    9   10       1
    10   10   11      ar
    11   10   12      ar
    12   10   13       1
    13   13   14       1
    14   14   15       1
    15   15   16       1
    16   15   17       1
    17   16   21       1
    18   17   18       1
    19   17   19       1
    20   19   20       1
    21   19   21       1
    22   21   22       1
    23   22   23       1
    24   22   32       1
    25   23   24       2
    26   24   25       1
    27   25   26       1
    28   25   32       2
    29   26   27       2
    30   26   28       1
    31   28   29       1
    32   29   30       1
    33   29   31       2
    34   31   32       1
    35   30   45       1
    36   30   44       1
    37    5   33       1
    38   28   43       1
    39   23   42       1
    40   14   34       1
    41   14   35       1
    42   15   36       1
    43   17   37       1
    44   18   38       1
    45   19   39       1
    46   20   40       1
    47   21   41       1
@<TRIPOS>SUBSTRUCTURE
     1 GNP323      1 GROUP             4 B     GNP     0 **** GNP B 323
