@<TRIPOS>MOLECULE
2ekl_NAD_1_ligand
   70    74     1     0     0
SMALL
NO_CHARGES


@<TRIPOS>ATOM
     1 PA          16.8350    36.9970    10.7210 P.3          1 NAD1300   0.0000
     2 O1A         15.8030    35.9850    11.0090 O.co2        1 NAD1300   0.0000
     3 O2A         18.0730    36.9730    11.6020 O.co2        1 NAD1300  -1.0000
     4 O5B         17.2240    36.8340     9.1750 O.3          1 NAD1300   0.0000
     5 C5B         18.2390    37.6560     8.6200 C.3          1 NAD1300   0.0000
     6 C4B         18.8580    36.7430     7.3980 C.3          1 NAD1300   0.0000
     7 O4B         19.6190    37.5530     6.4870 O.3          1 NAD1300   0.0000
     8 C3B         19.6790    35.5420     7.9760 C.3          1 NAD1300   0.0000
     9 O3B         19.2360    34.2950     7.4440 O.3          1 NAD1300   0.0000
    10 C2B         21.1200    35.9550     7.6520 C.3          1 NAD1300   0.0000
    11 O2B         22.0860    34.9380     7.5390 O.3          1 NAD1300   0.0000
    12 C1B         20.8460    36.7530     6.4310 C.3          1 NAD1300   0.0000
    13 N9A         22.0010    37.5970     5.9880 N.pl3        1 NAD1300   0.0000
    14 C8A         22.8860    38.3790     6.7160 C.2          1 NAD1300   0.0000
    15 N7A         23.7740    38.9610     5.8760 N.2          1 NAD1300   0.0000
    16 C5A         23.4760    38.5690     4.6160 C.ar         1 NAD1300   0.0000
    17 C6A         24.0250    38.8280     3.2980 C.ar         1 NAD1300   0.0000
    18 N6A         25.0730    39.6200     3.1390 N.pl3        1 NAD1300   0.0000
    19 N1A         23.4310    38.2200     2.1410 N.ar         1 NAD1300   0.0000
    20 C2A         22.2960    37.3520     2.2480 C.ar         1 NAD1300   0.0000
    21 N3A         21.7580    37.0960     3.5310 N.ar         1 NAD1300   0.0000
    22 C4A         22.3420    37.6960     4.6790 C.ar         1 NAD1300   0.0000
    23 O3          16.2030    38.4700    10.8810 O.3          1 NAD1300   0.0000
    24 PN          14.6970    38.9880    10.6210 P.3          1 NAD1300   0.0000
    25 O1N         14.0910    38.2300     9.5160 O.co2        1 NAD1300   0.0000
    26 O2N         14.0250    38.8610    11.9470 O.co2        1 NAD1300  -1.0000
    27 O5D         15.0360    40.4970    10.3170 O.3          1 NAD1300   0.0000
    28 C5D         15.4950    40.8630     9.0330 C.3          1 NAD1300   0.0000
    29 C4D         15.7960    42.3450     8.9530 C.3          1 NAD1300   0.0000
    30 O4D         14.6340    43.1330     9.1370 O.3          1 NAD1300   0.0000
    31 C3D         16.8170    42.9010     9.9870 C.3          1 NAD1300   0.0000
    32 O3D         17.7250    43.8260     9.3690 O.3          1 NAD1300   0.0000
    33 C2D         15.9530    43.4940    11.0400 C.3          1 NAD1300   0.0000
    34 O2D         16.6690    44.3300    11.9280 O.3          1 NAD1300   0.0000
    35 C1D         14.9150    44.0980    10.1360 C.3          1 NAD1300   0.0000
    36 N1N         13.6080    44.4900    10.7360 N.ar         1 NAD1300   1.0000
    37 C2N         13.0660    45.7660    10.3850 C.ar         1 NAD1300   0.0000
    38 C3N         11.8160    46.1620    10.9470 C.ar         1 NAD1300   0.0000
    39 C7N         11.2450    47.4800    10.5840 C.2          1 NAD1300   0.0000
    40 O7N         10.5630    48.1340    11.5390 O.2          1 NAD1300   0.0000
    41 N7N         11.3660    48.0460     9.3920 N.am         1 NAD1300   0.0000
    42 C4N         11.1350    45.2220    11.8780 C.ar         1 NAD1300   0.0000
    43 C5N         11.6980    43.9300    12.2260 C.ar         1 NAD1300   0.0000
    44 C6N         12.9530    43.5680    11.6410 C.ar         1 NAD1300   0.0000
    45 H5B1        18.9414    37.8636     9.3008 H            1 NAD1300   0.0000
    46 H5B2        17.8539    38.5090     8.2677 H            1 NAD1300   0.0000
    47 H4B         18.0869    36.3616     6.8881 H            1 NAD1300   0.0000
    48 H3B         19.5660    35.5250     8.9695 H            1 NAD1300   0.0000
    49 H5          19.3432    34.2998     6.4498 H            1 NAD1300   0.0000
    50 H2B         21.4239    36.5856     8.3661 H            1 NAD1300   0.0000
    51 H7          22.1289    34.6229     6.5909 H            1 NAD1300   0.0000
    52 H1B         20.7014    36.0869     5.6993 H            1 NAD1300   0.0000
    53 H8A         22.8704    38.4950     7.7091 H            1 NAD1300   0.0000
    54 H6A1        25.4386    39.7877     2.2235 H            1 NAD1300   0.0000
    55 H6A2        25.4994    40.0508     3.9344 H            1 NAD1300   0.0000
    56 H2A         21.8927    36.9360     1.4329 H            1 NAD1300   0.0000
    57 H5D1        14.7908    40.6376     8.3597 H            1 NAD1300   0.0000
    58 H5D2        16.3288    40.3505     8.8276 H            1 NAD1300   0.0000
    59 H4D         16.1528    42.5355     8.0384 H            1 NAD1300   0.0000
    60 H3D         17.3367    42.1411    10.3774 H            1 NAD1300   0.0000
    61 H17         18.2281    43.3623     8.6397 H            1 NAD1300   0.0000
    62 H2D         15.5314    42.7542    11.5643 H            1 NAD1300   0.0000
    63 H19         16.6656    45.2672    11.5793 H            1 NAD1300   0.0000
    64 H1D         15.3122    44.9022     9.6939 H            1 NAD1300   0.0000
    65 H2N         13.5550    46.3705     9.7562 H            1 NAD1300   0.0000
    66 H7N1        10.9529    48.9400     9.2188 H            1 NAD1300   0.0000
    67 H7N2        11.8704    47.5791     8.6657 H            1 NAD1300   0.0000
    68 H4N         10.2585    45.4898    12.2781 H            1 NAD1300   0.0000
    69 H5N         11.2242    43.3128    12.8542 H            1 NAD1300   0.0000
    70 H6N         13.3739    42.6865    11.8551 H            1 NAD1300   0.0000
@<TRIPOS>BOND
     1    1    2      ar
     2    1    3      ar
     3    1    4       1
     4    1   23       1
     5    4    5       1
     6    5    6       1
     7    6    7       1
     8    6    8       1
     9    7   12       1
    10    8    9       1
    11    8   10       1
    12   10   11       1
    13   10   12       1
    14   12   13       1
    15   13   14       1
    16   13   22       1
    17   14   15       2
    18   15   16       1
    19   16   17      ar
    20   16   22      ar
    21   17   18       1
    22   17   19      ar
    23   19   20      ar
    24   20   21      ar
    25   21   22      ar
    26   23   24       1
    27   24   25      ar
    28   24   26      ar
    29   24   27       1
    30   27   28       1
    31   28   29       1
    32   29   30       1
    33   29   31       1
    34   30   35       1
    35   31   32       1
    36   31   33       1
    37   33   34       1
    38   33   35       1
    39   35   36       1
    40   36   37      ar
    41   36   44      ar
    42   37   38      ar
    43   38   39       1
    44   38   42      ar
    45   39   40       2
    46   39   41      am
    47   42   43      ar
    48   43   44      ar
    49   44   70       1
    50    5   45       1
    51    5   46       1
    52    6   47       1
    53    8   48       1
    54    9   49       1
    55   10   50       1
    56   11   51       1
    57   12   52       1
    58   14   53       1
    59   18   54       1
    60   18   55       1
    61   20   56       1
    62   43   69       1
    63   28   57       1
    64   28   58       1
    65   29   59       1
    66   31   60       1
    67   32   61       1
    68   33   62       1
    69   34   63       1
    70   35   64       1
    71   37   65       1
    72   41   66       1
    73   41   67       1
    74   42   68       1
@<TRIPOS>SUBSTRUCTURE
     1 NAD1300     1 GROUP             4 A     NAD     0 **** NAD A1300
