@<TRIPOS>MOLECULE
2dkk_IMD_1_ligand
    9     9     1     0     0
SMALL
NO_CHARGES


@<TRIPOS>ATOM
     1 N1          60.6520    92.5330    20.6450 N.2          1 IMD431   0.0000
     2 C2          60.1050    92.9050    19.5000 C.2          1 IMD431   0.0000
     3 N3          59.4390    94.0310    19.6950 N.pl3        1 IMD431   0.0000
     4 C4          59.5640    94.3800    20.9910 C.2          1 IMD431   0.0000
     5 C5          60.3220    93.4430    21.5850 C.2          1 IMD431   0.0000
     6 H1          60.1821    92.4162    18.6310 H            1 IMD431   0.0000
     7 H2          59.1665    95.1864    21.4289 H            1 IMD431   0.0000
     8 H3          60.5921    93.4236    22.5476 H            1 IMD431   0.0000
     9 H4          58.9294    94.5373    18.9993 H            1 IMD431   0.0000
@<TRIPOS>BOND
     1    1    2       2
     2    1    5       1
     3    2    3       1
     4    3    4       1
     5    4    5       2
     6    5    8       1
     7    2    6       1
     8    4    7       1
     9    3    9       1
@<TRIPOS>SUBSTRUCTURE
     1 IMD431      1 GROUP             4 A     IMD     0 **** IMD A 431
