@<TRIPOS>MOLECULE
1mfz_GDX_3_ligand
   60    63     1     0     0
SMALL
NO_CHARGES


@<TRIPOS>ATOM
     1 N2         119.2790   139.9220   178.5030 N.pl3        1 GDX501   0.0000
     2 C2         119.4540   139.9110   179.8620 C.2          1 GDX501   0.0000
     3 N1         118.4880   139.3570   180.6440 N.pl3        1 GDX501   0.0000
     4 N3         120.5730   140.4480   180.3860 N.2          1 GDX501   0.0000
     5 C4         120.7860   140.4470   181.7020 C.2          1 GDX501   0.0000
     6 C5         119.7860   139.8680   182.6050 C.2          1 GDX501   0.0000
     7 C6         118.5800   139.2980   181.9890 C.2          1 GDX501   0.0000
     8 O6         117.6910   138.7940   182.7190 O.2          1 GDX501   0.0000
     9 N7         120.2260   139.9970   183.8610 N.2          1 GDX501   0.0000
    10 C8         121.4310   140.6160   183.8290 C.2          1 GDX501   0.0000
    11 N9         121.7010   140.8700   182.5560 N.pl3        1 GDX501   0.0000
    12 C1D        122.9330   141.2960   182.2150 C.3          1 GDX501   0.0000
    13 C2D        123.2970   142.5040   182.6210 C.3          1 GDX501   0.0000
    14 O2D        122.6740   143.3420   181.9570 O.3          1 GDX501   0.0000
    15 C3D        124.6500   142.6000   182.5730 C.3          1 GDX501   0.0000
    16 O3D        125.1300   143.1820   181.3250 O.3          1 GDX501   0.0000
    17 C4D        125.1790   141.3820   182.6390 C.3          1 GDX501   0.0000
    18 O4D        124.0940   140.4600   182.3870 O.3          1 GDX501   0.0000
    19 C5D        125.7860   141.1200   184.0000 C.3          1 GDX501   0.0000
    20 O5D        125.1260   141.8920   184.9990 O.3          1 GDX501   0.0000
    21 PA         125.1670   141.5340   186.5740 P.3          1 GDX501   0.0000
    22 O1A        125.7770   140.1620   186.7890 O.co2        1 GDX501   0.0000
    23 O2A        123.7900   141.8680   187.1060 O.co2        1 GDX501  -1.0000
    24 O3A        126.1720   142.6240   187.1600 O.3          1 GDX501   0.0000
    25 PB         127.7080   142.2620   187.3640 P.3          1 GDX501   0.0000
    26 O2B        128.4280   143.4680   187.9060 O.co2        1 GDX501   0.0000
    27 O3B        128.3030   141.9090   186.0380 O.co2        1 GDX501  -1.0000
    28 O1B        127.8370   141.0460   188.4230 O.3          1 GDX501   0.0000
    29 C1'        128.3220   139.8240   187.8020 C.3          1 GDX501   0.0000
    30 O5'        129.7700   139.8940   187.8340 O.3          1 GDX501   0.0000
    31 C5'        130.2450   139.7320   189.2040 C.3          1 GDX501   0.0000
    32 C6'        131.5740   139.5440   189.1690 C.2          1 GDX501   0.0000
    33 O6A        132.0430   138.6300   188.5080 O.co2        1 GDX501   0.0000
    34 O6B        132.3450   140.2750   189.7780 O.co2        1 GDX501  -1.0000
    35 C2'        127.8790   138.7480   188.4740 C.3          1 GDX501   0.0000
    36 O2'        128.2160   137.7050   187.9100 O.3          1 GDX501   0.0000
    37 C3'        128.2960   138.7590   189.7560 C.3          1 GDX501   0.0000
    38 O3'        127.7550   137.8400   190.3930 O.3          1 GDX501   0.0000
    39 C4'        129.6470   138.6850   189.8050 C.3          1 GDX501   0.0000
    40 O4'        130.0580   138.5850   190.9610 O.3          1 GDX501   0.0000
    41 H1         119.9780   140.3247   177.9121 H            1 GDX501   0.0000
    42 H2         118.4523   139.5273   178.1021 H            1 GDX501   0.0000
    43 H3         117.6748   138.9772   180.2030 H            1 GDX501   0.0000
    44 H4         122.0069   140.8388   184.6156 H            1 GDX501   0.0000
    45 H1D        122.8716   141.3986   181.2222 H            1 GDX501   0.0000
    46 H2D        123.0176   142.6022   183.5761 H            1 GDX501   0.0000
    47 H7         122.9363   144.2614   182.2501 H            1 GDX501   0.0000
    48 H3D        124.9742   143.1479   183.3442 H            1 GDX501   0.0000
    49 H9         125.1923   144.1753   181.4227 H            1 GDX501   0.0000
    50 H4D        125.8791   141.2798   181.9323 H            1 GDX501   0.0000
    51 H5D1       126.7550   141.3663   183.9809 H            1 GDX501   0.0000
    52 H5D2       125.6932   140.1489   184.2201 H            1 GDX501   0.0000
    53 H1'        128.0081   139.7811   186.8535 H            1 GDX501   0.0000
    54 H5'        130.0452   140.5645   189.7208 H            1 GDX501   0.0000
    55 H2'        126.8796   138.7823   188.4787 H            1 GDX501   0.0000
    56 H16        127.4006   137.1842   187.6574 H            1 GDX501   0.0000
    57 H3'        128.0172   139.6274   190.1661 H            1 GDX501   0.0000
    58 H18        128.0726   137.8596   191.3410 H            1 GDX501   0.0000
    59 H4'        129.9219   137.8581   189.3144 H            1 GDX501   0.0000
    60 H20        129.8462   139.4231   191.4637 H            1 GDX501   0.0000
@<TRIPOS>BOND
     1    1    2       1
     2    2    3       1
     3    2    4       2
     4    3    7       1
     5    4    5       1
     6    5    6       2
     7    5   11       1
     8    6    7       1
     9    6    9       1
    10    7    8       2
    11    9   10       2
    12   10   11       1
    13   11   12       1
    14   12   13       1
    15   12   18       1
    16   13   14       1
    17   13   15       1
    18   15   16       1
    19   15   17       1
    20   17   18       1
    21   17   19       1
    22   19   20       1
    23   20   21       1
    24   21   22      ar
    25   21   23      ar
    26   21   24       1
    27   24   25       1
    28   25   26      ar
    29   25   27      ar
    30   25   28       1
    31   28   29       1
    32   29   30       1
    33   29   35       1
    34   30   31       1
    35   31   32       1
    36   31   39       1
    37   32   33      ar
    38   32   34      ar
    39   35   36       1
    40   35   37       1
    41   37   38       1
    42   37   39       1
    43   39   40       1
    44    1   41       1
    45    1   42       1
    46    3   43       1
    47   10   44       1
    48   12   45       1
    49   13   46       1
    50   14   47       1
    51   15   48       1
    52   16   49       1
    53   17   50       1
    54   19   51       1
    55   19   52       1
    56   40   60       1
    57   39   59       1
    58   29   53       1
    59   31   54       1
    60   38   58       1
    61   35   55       1
    62   36   56       1
    63   37   57       1
@<TRIPOS>SUBSTRUCTURE
     1 GDX501      1 GROUP             4 D     GDX     0 **** GDX D 501
