@<TRIPOS>MOLECULE
1oj4_CDM_1_ligand
   56    57     1     0     0
SMALL
NO_CHARGES


@<TRIPOS>ATOM
     1 N1          37.1200    16.6810    17.5200 N.pl3        1 CDM1284   0.0000
     2 C2          37.9110    15.8720    16.6250 C.2          1 CDM1284   0.0000
     3 N3          37.4050    15.5430    15.3210 N.2          1 CDM1284   0.0000
     4 C4          36.1120    16.0290    14.9210 C.2          1 CDM1284   0.0000
     5 C5          35.3130    16.8440    15.8190 C.2          1 CDM1284   0.0000
     6 C6          35.8050    17.1590    17.1380 C.2          1 CDM1284   0.0000
     7 O2          39.1700    15.4000    17.0230 O.2          1 CDM1284   0.0000
     8 N4          35.6260    15.6990    13.6130 N.pl3        1 CDM1284   0.0000
     9 C1'         37.5870    17.0500    18.8540 C.3          1 CDM1284   0.0000
    10 C2'         38.5230    18.2220    18.6370 C.3          1 CDM1284   0.0000
    11 O2'         39.5910    18.1080    19.5530 O.3          1 CDM1284   0.0000
    12 C3'         37.6690    19.4290    18.9390 C.3          1 CDM1284   0.0000
    13 C4'         36.8010    18.9000    20.0690 C.3          1 CDM1284   0.0000
    14 O4'         36.5190    17.5450    19.6780 O.3          1 CDM1284   0.0000
    15 O3'         38.4490    20.5650    19.2860 O.3          1 CDM1284   0.0000
    16 C5'         35.5110    19.6670    20.2840 C.3          1 CDM1284   0.0000
    17 O5'         34.9970    19.9980    19.0080 O.3          1 CDM1284   0.0000
    18 PA          33.4850    20.5030    18.8120 P.3          1 CDM1284   0.0000
    19 O1A         32.5880    19.7830    19.7950 O.co2        1 CDM1284   0.0000
    20 O2A         33.4870    22.0100    18.7330 O.co2        1 CDM1284  -1.0000
    21 O3A         33.2100    19.9120    17.3530 O.3          1 CDM1284   0.0000
    22 PB          31.7340    19.8460    16.7300 P.3          1 CDM1284   0.0000
    23 O1B         31.7080    20.8990    15.6410 O.co2        1 CDM1284   0.0000
    24 O2B         30.7000    19.8390    17.8480 O.co2        1 CDM1284  -1.0000
    25 O3B         31.7680    18.3810    16.0290 O.3          1 CDM1284   0.0000
    26 C1M         31.2970    17.1940    16.6850 C.3          1 CDM1284   0.0000
    27 C2M         30.2770    16.5070    15.7680 C.3          1 CDM1284   0.0000
    28 O2M         30.8120    16.3950    14.4490 O.3          1 CDM1284   0.0000
    29 C3M         29.8860    15.1230    16.2680 C.3          1 CDM1284   0.0000
    30 C4M         28.8670    14.4900    15.3180 C.3          1 CDM1284   0.0000
    31 C5M         31.1270    14.2370    16.3360 C.3          1 CDM1284   0.0000
    32 O3M         29.3250    15.2520    17.5760 O.3          1 CDM1284   0.0000
    33 O4M         27.5650    15.0620    15.4260 O.3          1 CDM1284   0.0000
    34 H1          34.4215    17.1869    15.5229 H            1 CDM1284   0.0000
    35 H2          35.2514    17.6953    17.7751 H            1 CDM1284   0.0000
    36 H3          34.7295    16.0270    13.3153 H            1 CDM1284   0.0000
    37 H4          36.1836    15.1409    12.9985 H            1 CDM1284   0.0000
    38 H1'         38.0597    16.2871    19.2951 H            1 CDM1284   0.0000
    39 H2'         38.8580    18.2451    17.6951 H            1 CDM1284   0.0000
    40 H7          40.2219    18.8735    19.4264 H            1 CDM1284   0.0000
    41 H3'         37.0969    19.6429    18.1472 H            1 CDM1284   0.0000
    42 H4'         37.3292    18.8963    20.9181 H            1 CDM1284   0.0000
    43 H10         37.8447    21.3385    19.4773 H            1 CDM1284   0.0000
    44 H5'1        35.6920    20.5004    20.8062 H            1 CDM1284   0.0000
    45 H5'2        34.8543    19.0989    20.7800 H            1 CDM1284   0.0000
    46 H1M1        30.8619    17.4372    17.5519 H            1 CDM1284   0.0000
    47 H1M2        32.0645    16.5769    16.8588 H            1 CDM1284   0.0000
    48 H2M         29.4541    17.0738    15.7289 H            1 CDM1284   0.0000
    49 H16         30.2221    16.8851    13.8073 H            1 CDM1284   0.0000
    50 H4M1        28.8032    13.5138    15.5254 H            1 CDM1284   0.0000
    51 H4M2        29.1901    14.6109    14.3794 H            1 CDM1284   0.0000
    52 H5M1        30.8701    13.3281    16.6644 H            1 CDM1284   0.0000
    53 H5M2        31.5320    14.1601    15.4249 H            1 CDM1284   0.0000
    54 H5M3        31.7920    14.6424    16.9632 H            1 CDM1284   0.0000
    55 H3M         29.7360    16.0373    18.0390 H            1 CDM1284   0.0000
    56 H4M         27.6108    16.0378    15.2121 H            1 CDM1284   0.0000
@<TRIPOS>BOND
     1    1    2       1
     2    1    6       1
     3    1    9       1
     4    2    3       1
     5    2    7       2
     6    3    4       2
     7    4    5       1
     8    4    8       1
     9    5    6       2
    10    9   10       1
    11    9   14       1
    12   10   11       1
    13   10   12       1
    14   12   13       1
    15   12   15       1
    16   13   14       1
    17   13   16       1
    18   16   17       1
    19   17   18       1
    20   18   19      ar
    21   18   20      ar
    22   18   21       1
    23   21   22       1
    24   22   23      ar
    25   22   24      ar
    26   22   25       1
    27   25   26       1
    28   26   27       1
    29   27   28       1
    30   27   29       1
    31   29   30       1
    32   29   31       1
    33   29   32       1
    34   30   33       1
    35    5   34       1
    36    6   35       1
    37    8   36       1
    38    8   37       1
    39    9   38       1
    40   10   39       1
    41   11   40       1
    42   12   41       1
    43   13   42       1
    44   15   43       1
    45   16   44       1
    46   16   45       1
    47   33   56       1
    48   32   55       1
    49   26   46       1
    50   26   47       1
    51   27   48       1
    52   28   49       1
    53   30   50       1
    54   30   51       1
    55   31   52       1
    56   31   53       1
    57   31   54       1
@<TRIPOS>SUBSTRUCTURE
     1 CDM1284     1 GROUP             4 A     CDM     0 **** CDM A1284
