@<TRIPOS>MOLECULE
./coach420/3gpl/ligand.pdb
 31 33 0 0 0
SMALL
GASTEIGER

@<TRIPOS>ATOM
      1  PG        15.3430  -14.8050   31.7050 P.3   801  ANP801      0.4884
      2  O1G       15.3840  -14.4410   30.2720 O.2   801  ANP801     -0.2331
      3  O2G       16.6500  -14.3010   32.4950 O.3   801  ANP801     -0.1240
      4  O3G       14.0850  -14.1500   32.4650 O.3   801  ANP801     -0.1240
      5  PB        14.0090  -17.1200   31.2440 P.3   801  ANP801      0.4669
      6  O1B       13.9550  -16.6950   29.8280 O.2   801  ANP801     -0.2351
      7  O2B       12.8100  -16.8980   32.0820 O.3   801  ANP801     -0.1253
      8  N3B       15.2730  -16.4070   31.9750 N.3   801  ANP801     -0.0163
      9  PA        15.3000  -19.3950   30.2050 P.3   801  ANP801      0.2220
     10  O1A       14.4120  -20.0410   29.2140 O.2   801  ANP801     -0.5170
     11  O2A       16.3210  -18.4400   29.7180 O.3   801  ANP801     -0.4370
     12  O3A       14.3720  -18.6860   31.3150 O.3   801  ANP801     -0.2360
     13  O5'       16.0340  -20.5180   31.0900 O.3   801  ANP801     -0.3111
     14  C5'       16.8800  -21.4280   30.3880 C.3   801  ANP801      0.1813
     15  C4'       17.6180  -22.3770   31.3300 C.3   801  ANP801      0.1801
     16  O4'       16.6480  -23.2320   31.9620 O.3   801  ANP801     -0.3306
     17  C3'       18.3380  -23.2750   30.3240 C.3   801  ANP801      0.2161
     18  O3'       19.1760  -24.1900   31.0350 O.3   801  ANP801     -0.2175
     19  C2'       17.0990  -23.9950   29.7940 C.3   801  ANP801      0.2337
     20  O2'       17.4920  -25.1460   29.0440 O.3   801  ANP801     -0.2155
     21  C1'       16.5340  -24.4140   31.1510 C.3   801  ANP801      0.2409
     22  N9        15.1310  -24.8790   31.0790 N.ar  801  ANP801     -0.2693
     23  C8        14.0910  -24.1740   30.6380 C.ar  801  ANP801      0.1816
     24  N7        12.9780  -24.8940   30.7610 N.ar  801  ANP801     -0.2193
     25  C5        13.3070  -26.0710   31.2860 C.ar  801  ANP801      0.1518
     26  C6        12.5890  -27.1970   31.6610 C.ar  801  ANP801      0.1919
     27  N6        11.2700  -27.2540   31.5020 N.pl3 801  ANP801     -0.1054
     28  N1        13.2500  -28.2340   32.2000 N.ar  801  ANP801     -0.2040
     29  C2        14.5580  -28.1930   32.3720 C.ar  801  ANP801      0.2016
     30  N3        15.2710  -27.1360   32.0250 N.ar  801  ANP801     -0.2048
     31  C4        14.6800  -26.0630   31.4840 C.ar  801  ANP801      0.1692
@<TRIPOS>BOND
     1     1     2    2
     2     1     8    1
     3     1     4    1
     4     1     3    1
     5     5     6    2
     6     5    12    1
     7     5     8    1
     8     5     7    1
     9     9    10    2
    10     9    11    1
    11     9    13    1
    12     9    12    1
    13    13    14    1
    14    14    15    1
    15    15    17    1
    16    15    16    1
    17    16    21    1
    18    17    19    1
    19    17    18    1
    20    19    20    1
    21    19    21    1
    22    21    22    1
    23    22    23   ar
    24    22    31   ar
    25    23    24   ar
    26    24    25   ar
    27    25    31   ar
    28    25    26   ar
    29    26    27    1
    30    26    28   ar
    31    28    29   ar
    32    29    30   ar
    33    30    31   ar
