@<TRIPOS>MOLECULE
3r9u_FAD_2_ligand
   84    89     1     0     0
SMALL
NO_CHARGES


@<TRIPOS>ATOM
     1 PA          33.3810     4.3480    20.0790 P.3          1 FAD501   0.0000
     2 O1A         32.7910     5.4600    19.2190 O.co2        1 FAD501   0.0000
     3 O2A         34.4740     4.8080    21.0240 O.co2        1 FAD501  -1.0000
     4 O5B         33.9020     3.2660    19.0010 O.3          1 FAD501   0.0000
     5 C5B         32.9750     2.7550    18.0580 C.3          1 FAD501   0.0000
     6 C4B         33.7700     2.2990    16.8710 C.3          1 FAD501   0.0000
     7 O4B         32.8490     1.7680    15.9660 O.3          1 FAD501   0.0000
     8 C3B         34.5540     3.3530    16.0830 C.3          1 FAD501   0.0000
     9 O3B         35.9470     3.0660    16.0860 O.3          1 FAD501   0.0000
    10 C2B         34.0250     3.2210    14.6540 C.3          1 FAD501   0.0000
    11 O2B         35.0670     3.3570    13.6950 O.3          1 FAD501   0.0000
    12 C1B         33.3610     1.8540    14.6610 C.3          1 FAD501   0.0000
    13 N9A         32.1660     1.7370    13.8040 N.pl3        1 FAD501   0.0000
    14 C8A         31.0350     2.5060    13.8990 C.2          1 FAD501   0.0000
    15 N7A         30.1710     2.0800    12.9430 N.2          1 FAD501   0.0000
    16 C5A         30.7180     1.0400    12.2710 C.ar         1 FAD501   0.0000
    17 C6A         30.2620     0.2380    11.2100 C.ar         1 FAD501   0.0000
    18 N6A         29.1600     0.5820    10.5360 N.pl3        1 FAD501   0.0000
    19 N1A         31.0900    -0.7780    10.7290 N.ar         1 FAD501   0.0000
    20 C2A         32.3500    -0.9830    11.2590 C.ar         1 FAD501   0.0000
    21 N3A         32.7600    -0.1780    12.3010 N.ar         1 FAD501   0.0000
    22 C4A         31.9770     0.8140    12.8000 C.ar         1 FAD501   0.0000
    23 N1          35.7280     9.3910    28.0030 N.2          1 FAD501   0.0000
    24 C2          36.2630     9.3340    29.2570 C.2          1 FAD501   0.0000
    25 O2          35.8130     8.5310    30.0630 O.2          1 FAD501   0.0000
    26 N3          37.3010    10.1750    29.6280 N.pl3        1 FAD501   0.0000
    27 C4          37.7970    11.1230    28.7160 C.2          1 FAD501   0.0000
    28 O4          38.6970    11.8760    29.0750 O.2          1 FAD501   0.0000
    29 C4X         37.2600    11.2000    27.4170 C.2          1 FAD501   0.0000
    30 N5          37.7570    12.0950    26.4810 N.2          1 FAD501   0.0000
    31 C5X         37.2100    12.1610    25.1930 C.ar         1 FAD501   0.0000
    32 C6          37.7320    13.0530    24.2460 C.ar         1 FAD501   0.0000
    33 C7          37.2160    13.0580    22.9170 C.ar         1 FAD501   0.0000
    34 C7M         37.7360    14.0210    21.8940 C.3          1 FAD501   0.0000
    35 C8          36.1700    12.1880    22.5480 C.ar         1 FAD501   0.0000
    36 C8M         35.5790    12.2310    21.1720 C.3          1 FAD501   0.0000
    37 C9          35.6530    11.3030    23.5050 C.ar         1 FAD501   0.0000
    38 C9A         36.1710    11.2710    24.8290 C.ar         1 FAD501   0.0000
    39 N10         35.6690    10.3510    25.7860 N.pl3        1 FAD501   0.0000
    40 C10         36.2120    10.3170    27.0710 C.2          1 FAD501   0.0000
    41 C1'         34.5110     9.4300    25.4780 C.3          1 FAD501   0.0000
    42 C2'         34.8200     8.0430    25.0060 C.3          1 FAD501   0.0000
    43 O2'         35.6750     8.2370    23.8950 O.3          1 FAD501   0.0000
    44 C3'         33.5200     7.3560    24.5660 C.3          1 FAD501   0.0000
    45 O3'         32.4780     7.3930    25.5190 O.3          1 FAD501   0.0000
    46 C4'         33.8350     5.9020    24.2990 C.3          1 FAD501   0.0000
    47 O4'         34.8880     5.8670    23.3720 O.3          1 FAD501   0.0000
    48 C5'         32.6390     5.2490    23.6270 C.3          1 FAD501   0.0000
    49 O5'         33.1350     4.0130    23.1780 O.3          1 FAD501   0.0000
    50 P           32.1630     3.0690    22.3510 P.3          1 FAD501   0.0000
    51 O1P         32.8260     1.7090    22.4070 O.co2        1 FAD501   0.0000
    52 O2P         30.6950     3.2010    22.6540 O.co2        1 FAD501  -1.0000
    53 O3P         32.1580     3.6170    20.8080 O.3          1 FAD501   0.0000
    54 H5B1        32.3307     3.4700    17.7866 H            1 FAD501   0.0000
    55 H5B2        32.4724     1.9854    18.4518 H            1 FAD501   0.0000
    56 H4B         34.3972     1.5752    17.1586 H            1 FAD501   0.0000
    57 H3B         34.3791     4.2692    16.4435 H            1 FAD501   0.0000
    58 H5          36.1040     2.1719    15.6666 H            1 FAD501   0.0000
    59 H2B         33.3326     3.9240    14.4916 H            1 FAD501   0.0000
    60 H7          35.4607     2.4585    13.5009 H            1 FAD501   0.0000
    61 H1B         34.0193     1.1245    14.4755 H            1 FAD501   0.0000
    62 H8A         30.8758     3.2455    14.5530 H            1 FAD501   0.0000
    63 H6A1        28.8366     0.0108     9.7816 H            1 FAD501   0.0000
    64 H6A2        28.6590     1.4105    10.7862 H            1 FAD501   0.0000
    65 H2A         32.9490    -1.6968    10.8961 H            1 FAD501   0.0000
    66 H13         37.6967    10.1073    30.5439 H            1 FAD501   0.0000
    67 H14         38.4643    13.6841    24.5019 H            1 FAD501   0.0000
    68 H7M1        37.2584    13.8767    21.0273 H            1 FAD501   0.0000
    69 H7M2        37.5806    14.9575    22.2084 H            1 FAD501   0.0000
    70 H7M3        38.7161    13.8716    21.7634 H            1 FAD501   0.0000
    71 H8M1        34.8548    11.5453    21.0987 H            1 FAD501   0.0000
    72 H8M2        35.1966    13.1392    21.0017 H            1 FAD501   0.0000
    73 H8M3        36.2911    12.0373    20.4972 H            1 FAD501   0.0000
    74 H21         34.9086    10.6849    23.2525 H            1 FAD501   0.0000
    75 H1'1        33.9622     9.8702    24.7674 H            1 FAD501   0.0000
    76 H1'2        33.9684     9.3454    26.3137 H            1 FAD501   0.0000
    77 H2'         35.2782     7.5158    25.7217 H            1 FAD501   0.0000
    78 H25         35.5509     7.4881    23.2441 H            1 FAD501   0.0000
    79 H3'         33.1999     7.7796    23.7186 H            1 FAD501   0.0000
    80 H27         31.5957     7.3958    25.0483 H            1 FAD501   0.0000
    81 H4'         34.0805     5.4247    25.1428 H            1 FAD501   0.0000
    82 H29         34.5914     5.3831    22.5487 H            1 FAD501   0.0000
    83 H5'1        32.3163     5.8027    22.8593 H            1 FAD501   0.0000
    84 H5'2        31.8928     5.1168    24.2795 H            1 FAD501   0.0000
@<TRIPOS>BOND
     1    1    2      ar
     2    1    3      ar
     3    1    4       1
     4    1   53       1
     5    4    5       1
     6    5    6       1
     7    6    7       1
     8    6    8       1
     9    7   12       1
    10    8    9       1
    11    8   10       1
    12   10   11       1
    13   10   12       1
    14   12   13       1
    15   13   14       1
    16   13   22       1
    17   14   15       2
    18   15   16       1
    19   16   17      ar
    20   16   22      ar
    21   17   18       1
    22   17   19      ar
    23   19   20      ar
    24   20   21      ar
    25   21   22      ar
    26   23   24       1
    27   23   40       2
    28   24   25       2
    29   24   26       1
    30   26   27       1
    31   27   28       2
    32   27   29       1
    33   29   30       2
    34   29   40       1
    35   30   31       1
    36   31   32      ar
    37   31   38      ar
    38   32   33      ar
    39   33   34       1
    40   33   35      ar
    41   35   36       1
    42   35   37      ar
    43   37   38      ar
    44   38   39       1
    45   39   40       1
    46   39   41       1
    47   41   42       1
    48   42   43       1
    49   42   44       1
    50   44   45       1
    51   44   46       1
    52   46   47       1
    53   46   48       1
    54   48   49       1
    55   49   50       1
    56   50   51      ar
    57   50   52      ar
    58   50   53       1
    59   48   84       1
    60    5   54       1
    61    5   55       1
    62    6   56       1
    63    8   57       1
    64    9   58       1
    65   10   59       1
    66   11   60       1
    67   12   61       1
    68   14   62       1
    69   18   63       1
    70   18   64       1
    71   20   65       1
    72   26   66       1
    73   32   67       1
    74   34   68       1
    75   34   69       1
    76   34   70       1
    77   36   71       1
    78   36   72       1
    79   36   73       1
    80   37   74       1
    81   41   75       1
    82   41   76       1
    83   42   77       1
    84   43   78       1
    85   44   79       1
    86   45   80       1
    87   46   81       1
    88   47   82       1
    89   48   83       1
@<TRIPOS>SUBSTRUCTURE
     1 FAD501      1 GROUP             4 B     FAD     0 **** FAD B 501
