@<TRIPOS>MOLECULE
1x2b_STX_1_ligand
   30    30     1     0     0
SMALL
NO_CHARGES


@<TRIPOS>ATOM
     1 N           18.4240    -0.3340    -9.0280 N.4          1 STX401   1.0000
     2 CA          19.2580     0.3830    -7.9900 C.3          1 STX401   0.0000
     3 C           20.7310    -0.0430    -8.0460 C.2          1 STX401   0.0000
     4 O           21.0870    -1.1610    -7.7090 O.2          1 STX401   0.0000
     5 CD          17.0950    -0.6440    -8.3970 C.3          1 STX401   0.0000
     6 C5          21.6890     0.9680    -8.5010 C.2          1 STX401   0.0000
     7 N4          21.6680     1.7970    -9.5720 N.2          1 STX401   0.0000
     8 N3          22.7540     2.5370    -9.5680 N.2          1 STX401   0.0000
     9 C2          23.5220     2.2190    -8.5000 C.2          1 STX401   0.0000
    10 O1          22.8750     1.2010    -7.7710 O.2          1 STX401   0.0000
    11 C6          24.8470     2.7390    -8.0060 C.3          1 STX401   0.0000
    12 C7          25.6590     3.2950    -9.1820 C.3          1 STX401   0.0000
    13 C8          25.6400     1.6120    -7.3320 C.3          1 STX401   0.0000
    14 C9          24.5580     3.8600    -7.0170 C.3          1 STX401   0.0000
    15 H1          18.8771    -1.1812    -9.3055 H            1 STX401   0.0000
    16 HA1         18.8950     0.1730    -7.0822 H            1 STX401   0.0000
    17 HA2         19.1999     1.3680    -8.1526 H            1 STX401   0.0000
    18 HD1         16.5152    -1.1204    -9.0580 H            1 STX401   0.0000
    19 HD2         17.2341    -1.2256    -7.5955 H            1 STX401   0.0000
    20 HD3         16.6518     0.2078    -8.1178 H            1 STX401   0.0000
    21 H7          26.5368     3.6385    -8.8481 H            1 STX401   0.0000
    22 H8          25.8178     2.5685    -9.8505 H            1 STX401   0.0000
    23 H9          25.1519     4.0407    -9.6142 H            1 STX401   0.0000
    24 H10         26.5165     1.9685    -7.0085 H            1 STX401   0.0000
    25 H11         25.1187     1.2551    -6.5568 H            1 STX401   0.0000
    26 H12         25.8017     0.8777    -7.9913 H            1 STX401   0.0000
    27 H13         25.4202     4.2281    -6.6691 H            1 STX401   0.0000
    28 H14         24.0467     4.5863    -7.4765 H            1 STX401   0.0000
    29 H15         24.0172     3.5018    -6.2559 H            1 STX401   0.0000
    30 H16         18.2947     0.2523    -9.8277 H            1 STX401   0.0000
@<TRIPOS>BOND
     1    1    2       1
     2    1    5       1
     3    2    3       1
     4    3    4       2
     5    3    6       1
     6    6    7       2
     7    6   10       1
     8    7    8       1
     9    8    9       2
    10    9   10       1
    11    9   11       1
    12   11   12       1
    13   11   13       1
    14   11   14       1
    15    1   15       1
    16    2   16       1
    17    2   17       1
    18    5   18       1
    19    5   19       1
    20    5   20       1
    21   12   21       1
    22   12   22       1
    23   12   23       1
    24   13   24       1
    25   13   25       1
    26   13   26       1
    27   14   27       1
    28   14   28       1
    29   14   29       1
    30    1   30       1
@<TRIPOS>SUBSTRUCTURE
     1 STX401      1 GROUP             4 A     STX     0 **** STX A 401
