@<TRIPOS>MOLECULE
4xul_GTP_1_ligand
   44    46     1     0     0
SMALL
NO_CHARGES


@<TRIPOS>ATOM
     1 PG          22.5760    52.9060    67.2270 P.3          1 GTP404   0.0000
     2 O1G         22.3800    52.3470    65.8350 O.co2        1 GTP404   0.0000
     3 O2G         21.2740    53.2410    67.9180 O.co2        1 GTP404  -1.0000
     4 O3G         23.6190    53.9980    67.3130 O.co2        1 GTP404  -1.0000
     5 O3B         23.1700    51.6790    68.1080 O.3          1 GTP404   0.0000
     6 PB          24.4310    50.7420    67.7030 P.3          1 GTP404   0.0000
     7 O1B         24.7440    50.8620    66.2220 O.co2        1 GTP404   0.0000
     8 O2B         25.5360    50.9950    68.6990 O.co2        1 GTP404  -1.0000
     9 O3A         23.8450    49.2730    68.0470 O.3          1 GTP404   0.0000
    10 PA          22.8600    48.4790    67.0430 P.3          1 GTP404   0.0000
    11 O1A         22.5890    49.3180    65.8170 O.co2        1 GTP404   0.0000
    12 O2A         23.3460    47.0570    66.8770 O.co2        1 GTP404  -1.0000
    13 O5'         21.5190    48.4410    67.9310 O.3          1 GTP404   0.0000
    14 C5'         20.7220    49.6200    67.9800 C.3          1 GTP404   0.0000
    15 C4'         19.2560    49.2600    68.1260 C.3          1 GTP404   0.0000
    16 O4'         19.0100    48.6610    69.3980 O.3          1 GTP404   0.0000
    17 C3'         18.3960    50.5080    68.0610 C.3          1 GTP404   0.0000
    18 O3'         17.8710    50.6910    66.7450 O.3          1 GTP404   0.0000
    19 C2'         17.2720    50.2510    69.0370 C.3          1 GTP404   0.0000
    20 O2'         16.1350    49.8110    68.2930 O.3          1 GTP404   0.0000
    21 C1'         17.7550    49.1120    69.9200 C.3          1 GTP404   0.0000
    22 N9          17.9300    49.5550    71.3300 N.pl3        1 GTP404   0.0000
    23 C8          19.0680    50.0320    71.8720 C.2          1 GTP404   0.0000
    24 N7          18.8980    50.3350    73.1850 N.2          1 GTP404   0.0000
    25 C5          17.6220    50.0500    73.5040 C.2          1 GTP404   0.0000
    26 C6          16.7790    50.1310    74.7200 C.2          1 GTP404   0.0000
    27 O6          17.2450    50.5600    75.7970 O.2          1 GTP404   0.0000
    28 N1          15.5040    49.7350    74.6270 N.pl3        1 GTP404   0.0000
    29 C2          14.9760    49.2700    73.4780 C.2          1 GTP404   0.0000
    30 N2          13.6780    48.8820    73.4580 N.pl3        1 GTP404   0.0000
    31 N3          15.6920    49.1690    72.3300 N.2          1 GTP404   0.0000
    32 C4          16.9910    49.5370    72.2800 C.2          1 GTP404   0.0000
    33 H5'1        20.8512    50.1406    67.1360 H            1 GTP404   0.0000
    34 H5'2        21.0042    50.1765    68.7614 H            1 GTP404   0.0000
    35 H4'         18.9895    48.6282    67.3982 H            1 GTP404   0.0000
    36 H3'         18.9238    51.3101    68.3404 H            1 GTP404   0.0000
    37 H5          16.9903    50.2233    66.6694 H            1 GTP404   0.0000
    38 H2'         17.0624    51.0670    69.5757 H            1 GTP404   0.0000
    39 H7          15.3756    50.4452    68.4386 H            1 GTP404   0.0000
    40 H1'         17.0933    48.3629    69.8871 H            1 GTP404   0.0000
    41 H9          19.9264    50.1478    71.3722 H            1 GTP404   0.0000
    42 H10         14.9226    49.7860    75.4390 H            1 GTP404   0.0000
    43 H11         13.2729    48.5349    72.6122 H            1 GTP404   0.0000
    44 H12         13.1251    48.9428    74.2890 H            1 GTP404   0.0000
@<TRIPOS>BOND
     1    1    2      ar
     2    1    3      ar
     3    1    4      ar
     4    1    5       1
     5    5    6       1
     6    6    7      ar
     7    6    8      ar
     8    6    9       1
     9    9   10       1
    10   10   11      ar
    11   10   12      ar
    12   10   13       1
    13   13   14       1
    14   14   15       1
    15   15   16       1
    16   15   17       1
    17   16   21       1
    18   17   18       1
    19   17   19       1
    20   19   20       1
    21   19   21       1
    22   21   22       1
    23   22   23       1
    24   22   32       1
    25   23   24       2
    26   24   25       1
    27   25   26       1
    28   25   32       2
    29   26   27       2
    30   26   28       1
    31   28   29       1
    32   29   30       1
    33   29   31       2
    34   31   32       1
    35   30   44       1
    36   30   43       1
    37   28   42       1
    38   23   41       1
    39   14   33       1
    40   14   34       1
    41   15   35       1
    42   17   36       1
    43   18   37       1
    44   19   38       1
    45   20   39       1
    46   21   40       1
@<TRIPOS>SUBSTRUCTURE
     1 GTP404      1 GROUP             4 A     GTP     0 **** GTP A 404
