@<TRIPOS>MOLECULE
1cne_FAD_1_ligand
   84    89     1     0     0
SMALL
NO_CHARGES


@<TRIPOS>ATOM
     1 PA          23.2000    16.3640     3.8580 P.3          1 FAD271   0.0000
     2 O1A         24.5860    16.5770     4.4460 O.co2        1 FAD271   0.0000
     3 O2A         22.8310    16.5880     2.4020 O.co2        1 FAD271  -1.0000
     4 O5B         22.6750    14.8010     4.3090 O.3          1 FAD271   0.0000
     5 C5B         21.2610    14.5250     4.5460 C.3          1 FAD271   0.0000
     6 C4B         20.8520    13.4610     3.5060 C.3          1 FAD271   0.0000
     7 O4B         21.0930    12.0290     3.7670 O.3          1 FAD271   0.0000
     8 C3B         19.3630    13.7020     3.3410 C.3          1 FAD271   0.0000
     9 O3B         18.9860    14.1810     2.0040 O.3          1 FAD271   0.0000
    10 C2B         18.7820    12.3910     3.9640 C.3          1 FAD271   0.0000
    11 O2B         17.7870    11.6660     3.2220 O.3          1 FAD271   0.0000
    12 C1B         19.8960    11.4200     4.3200 C.3          1 FAD271   0.0000
    13 N9A         19.8560    11.1010     5.8050 N.pl3        1 FAD271   0.0000
    14 C8A         20.8750    11.1280     6.6550 C.2          1 FAD271   0.0000
    15 N7A         20.5230    10.7120     7.8820 N.2          1 FAD271   0.0000
    16 C5A         19.2430    10.4600     7.7800 C.ar         1 FAD271   0.0000
    17 C6A         18.4280    10.0600     8.8240 C.ar         1 FAD271   0.0000
    18 N6A         18.6800    10.1130    10.1230 N.pl3        1 FAD271   0.0000
    19 N1A         17.1620     9.8530     8.4960 N.ar         1 FAD271   0.0000
    20 C2A         16.7220    10.0990     7.2540 C.ar         1 FAD271   0.0000
    21 N3A         17.5050    10.5300     6.2650 N.ar         1 FAD271   0.0000
    22 C4A         18.8140    10.6880     6.5140 C.ar         1 FAD271   0.0000
    23 N1          15.8380    21.1680     6.2650 N.2          1 FAD271   0.0000
    24 C2          15.3030    21.2580     7.5550 C.2          1 FAD271   0.0000
    25 O2          15.5940    20.6410     8.5450 O.2          1 FAD271   0.0000
    26 N3          14.3590    22.1840     7.6230 N.pl3        1 FAD271   0.0000
    27 C4          13.9180    23.0450     6.6410 C.2          1 FAD271   0.0000
    28 O4          13.0720    23.7890     7.0940 O.2          1 FAD271   0.0000
    29 C4X         14.5530    22.9050     5.2790 C.2          1 FAD271   0.0000
    30 N5          14.2030    23.6810     4.1500 N.2          1 FAD271   0.0000
    31 C5X         14.7120    23.3500     2.9260 C.ar         1 FAD271   0.0000
    32 C6          14.5130    24.2360     1.9680 C.ar         1 FAD271   0.0000
    33 C7          14.9560    23.9570     0.7620 C.ar         1 FAD271   0.0000
    34 C7M         14.9340    24.9280    -0.2600 C.3          1 FAD271   0.0000
    35 C8          15.5590    22.8070     0.4840 C.ar         1 FAD271   0.0000
    36 C8M         15.7540    22.4480    -0.9350 C.3          1 FAD271   0.0000
    37 C9          15.8020    21.9330     1.4290 C.ar         1 FAD271   0.0000
    38 C9A         15.4370    22.1950     2.6640 C.ar         1 FAD271   0.0000
    39 N10         15.9790    21.5480     3.7250 N.pl3        1 FAD271   0.0000
    40 C10         15.5020    21.8840     5.0660 C.2          1 FAD271   0.0000
    41 C1'         17.3530    21.5520     3.6530 C.3          1 FAD271   0.0000
    42 C2'         18.2280    20.4550     2.9600 C.3          1 FAD271   0.0000
    43 O2'         17.6280    19.3090     2.3150 O.3          1 FAD271   0.0000
    44 C3'         19.2590    19.9080     3.7810 C.3          1 FAD271   0.0000
    45 O3'         20.2340    19.0850     3.0860 O.3          1 FAD271   0.0000
    46 C4'         18.6060    19.3320     4.9890 C.3          1 FAD271   0.0000
    47 O4'         18.4190    20.3520     6.0330 O.3          1 FAD271   0.0000
    48 C5'         19.6480    18.1860     5.4340 C.3          1 FAD271   0.0000
    49 O5'         20.9890    18.7250     5.6370 O.3          1 FAD271   0.0000
    50 P           22.3650    17.9440     6.1570 P.3          1 FAD271   0.0000
    51 O1P         22.1620    16.9750     7.2220 O.co2        1 FAD271   0.0000
    52 O2P         23.6310    18.7360     6.2230 O.co2        1 FAD271  -1.0000
    53 O3P         22.1790    17.3490     4.6420 O.3          1 FAD271   0.0000
    54 H5B1        20.7197    15.3568     4.4227 H            1 FAD271   0.0000
    55 H5B2        21.1265    14.1741     5.4727 H            1 FAD271   0.0000
    56 H4B         21.2966    13.6928     2.6408 H            1 FAD271   0.0000
    57 H3B         19.1290    14.4384     3.9758 H            1 FAD271   0.0000
    58 H5          17.9962    14.3181     1.9659 H            1 FAD271   0.0000
    59 H2B         18.3524    12.6557     4.8273 H            1 FAD271   0.0000
    60 H7          17.1768    11.1925     3.8572 H            1 FAD271   0.0000
    61 H1B         19.7292    10.5694     3.8214 H            1 FAD271   0.0000
    62 H8A         21.7982    11.4240     6.4098 H            1 FAD271   0.0000
    63 H6A1        17.9982     9.7879    10.7783 H            1 FAD271   0.0000
    64 H6A2        19.5521    10.4782    10.4486 H            1 FAD271   0.0000
    65 H2A         15.7525     9.9510     7.0585 H            1 FAD271   0.0000
    66 H13         13.9032    22.2707     8.5088 H            1 FAD271   0.0000
    67 H14         14.0382    25.0961     2.1545 H            1 FAD271   0.0000
    68 H7M1        15.3078    24.5358    -1.1005 H            1 FAD271   0.0000
    69 H7M2        13.9918    25.2224    -0.4198 H            1 FAD271   0.0000
    70 H7M3        15.4868    25.7145     0.0155 H            1 FAD271   0.0000
    71 H8M1        16.2169    21.5636    -0.9945 H            1 FAD271   0.0000
    72 H8M2        14.8651    22.3902    -1.3894 H            1 FAD271   0.0000
    73 H8M3        16.3120    23.1471    -1.3821 H            1 FAD271   0.0000
    74 H21         16.2622    21.0721     1.2121 H            1 FAD271   0.0000
    75 H1'1        17.6677    21.5814     4.6017 H            1 FAD271   0.0000
    76 H1'2        17.5917    22.4088     3.1959 H            1 FAD271   0.0000
    77 H2'         18.7111    20.9367     2.2289 H            1 FAD271   0.0000
    78 H25         18.3463    18.7269     1.9340 H            1 FAD271   0.0000
    79 H3'         19.7741    20.6978     4.1142 H            1 FAD271   0.0000
    80 H27         20.9124    18.7486     3.7392 H            1 FAD271   0.0000
    81 H4'         17.7268    18.9231     4.7444 H            1 FAD271   0.0000
    82 H29         17.4449    20.4423     6.2401 H            1 FAD271   0.0000
    83 H5'1        19.6845    17.4864     4.7204 H            1 FAD271   0.0000
    84 H5'2        19.3314    17.7743     6.2886 H            1 FAD271   0.0000
@<TRIPOS>BOND
     1    1    2      ar
     2    1    3      ar
     3    1    4       1
     4    1   53       1
     5    4    5       1
     6    5    6       1
     7    6    7       1
     8    6    8       1
     9    7   12       1
    10    8    9       1
    11    8   10       1
    12   10   11       1
    13   10   12       1
    14   12   13       1
    15   13   14       1
    16   13   22       1
    17   14   15       2
    18   15   16       1
    19   16   17      ar
    20   16   22      ar
    21   17   18       1
    22   17   19      ar
    23   19   20      ar
    24   20   21      ar
    25   21   22      ar
    26   23   24       1
    27   23   40       2
    28   24   25       2
    29   24   26       1
    30   26   27       1
    31   27   28       2
    32   27   29       1
    33   29   30       2
    34   29   40       1
    35   30   31       1
    36   31   32      ar
    37   31   38      ar
    38   32   33      ar
    39   33   34       1
    40   33   35      ar
    41   35   36       1
    42   35   37      ar
    43   37   38      ar
    44   38   39       1
    45   39   40       1
    46   39   41       1
    47   41   42       1
    48   42   43       1
    49   42   44       1
    50   44   45       1
    51   44   46       1
    52   46   47       1
    53   46   48       1
    54   48   49       1
    55   49   50       1
    56   50   51      ar
    57   50   52      ar
    58   50   53       1
    59   48   84       1
    60    5   54       1
    61    5   55       1
    62    6   56       1
    63    8   57       1
    64    9   58       1
    65   10   59       1
    66   11   60       1
    67   12   61       1
    68   14   62       1
    69   18   63       1
    70   18   64       1
    71   20   65       1
    72   26   66       1
    73   32   67       1
    74   34   68       1
    75   34   69       1
    76   34   70       1
    77   36   71       1
    78   36   72       1
    79   36   73       1
    80   37   74       1
    81   41   75       1
    82   41   76       1
    83   42   77       1
    84   43   78       1
    85   44   79       1
    86   45   80       1
    87   46   81       1
    88   47   82       1
    89   48   83       1
@<TRIPOS>SUBSTRUCTURE
     1 FAD271      1 GROUP             4 A     FAD     0 **** FAD A 271
