@<TRIPOS>MOLECULE
1dfo_FFO_8_ligand
   55    57     1     0     0
SMALL
NO_CHARGES


@<TRIPOS>ATOM
     1 N1          -2.1550    42.8300    56.0560 N.2          1 FFO4002   0.0000
     2 C2          -2.5940    44.1030    56.0630 C.2          1 FFO4002   0.0000
     3 NA2         -3.6150    44.6710    55.4700 N.pl3        1 FFO4002   0.0000
     4 N3          -1.8260    44.9850    56.8470 N.pl3        1 FFO4002   0.0000
     5 C4          -0.6940    44.6800    57.5830 C.2          1 FFO4002   0.0000
     6 O4          -0.0740    45.5590    58.2570 O.2          1 FFO4002   0.0000
     7 C4A         -0.2560    43.2640    57.5220 C.2          1 FFO4002   0.0000
     8 N5           0.9230    42.7480    58.2360 N.am         1 FFO4002   0.0000
     9 C6           0.7230    41.3910    58.6780 C.3          1 FFO4002   0.0000
    10 C7           0.2870    40.6200    57.4820 C.3          1 FFO4002   0.0000
    11 N8          -0.8340    41.0110    56.8090 N.pl3        1 FFO4002   0.0000
    12 C8A         -1.0320    42.3930    56.7560 C.2          1 FFO4002   0.0000
    13 C9          -0.4200    41.2360    59.6940 C.3          1 FFO4002   0.0000
    14 N10         -0.0490    41.9770    60.9540 N.pl3        1 FFO4002   0.0000
    15 C11         -2.4740    43.2500    64.0240 C.ar         1 FFO4002   0.0000
    16 C12         -1.1450    42.7730    64.3060 C.ar         1 FFO4002   0.0000
    17 C13         -0.3440    42.3480    63.2680 C.ar         1 FFO4002   0.0000
    18 C14         -0.9270    42.4220    61.9420 C.ar         1 FFO4002   0.0000
    19 C15         -2.1700    42.8660    61.6100 C.ar         1 FFO4002   0.0000
    20 C16         -2.9450    43.2870    62.7190 C.ar         1 FFO4002   0.0000
    21 C           -3.3830    43.7020    65.0800 C.2          1 FFO4002   0.0000
    22 O           -4.2040    44.5730    64.7950 O.2          1 FFO4002   0.0000
    23 N           -3.3360    43.1890    66.3050 N.am         1 FFO4002   0.0000
    24 CA          -4.1100    43.7420    67.4500 C.3          1 FFO4002   0.0000
    25 CB          -5.3840    42.8520    67.6680 C.3          1 FFO4002   0.0000
    26 CG          -5.1390    41.2300    67.4980 C.3          1 FFO4002   0.0000
    27 CD          -6.2470    40.1420    67.6870 C.2          1 FFO4002   0.0000
    28 OE1         -6.9380    39.9330    66.6880 O.co2        1 FFO4002   0.0000
    29 OE2         -6.3810    39.5280    68.8570 O.co2        1 FFO4002  -1.0000
    30 CT          -3.2780    43.6480    68.6880 C.2          1 FFO4002   0.0000
    31 O1          -2.2000    43.0390    68.6860 O.co2        1 FFO4002   0.0000
    32 O2          -3.6940    44.2060    69.7380 O.co2        1 FFO4002  -1.0000
    33 C5A          2.0640    43.4600    58.1720 C.2          1 FFO4002   0.0000
    34 O5B          3.0650    43.0300    58.7870 O.2          1 FFO4002   0.0000
    35 HA21        -3.7858    45.6483    55.5954 H            1 FFO4002   0.0000
    36 HA22        -4.2234    44.1272    54.8920 H            1 FFO4002   0.0000
    37 H3           1.5727    41.0141    59.0468 H            1 FFO4002   0.0000
    38 H4           0.1342    39.6782    57.7815 H            1 FFO4002   0.0000
    39 H5           1.0432    40.6432    56.8280 H            1 FFO4002   0.0000
    40 H6          -1.4643    40.3594    56.3869 H            1 FFO4002   0.0000
    41 H7          -0.5574    40.2674    59.9011 H            1 FFO4002   0.0000
    42 H8          -1.2623    41.6184    59.3141 H            1 FFO4002   0.0000
    43 H9           0.9224    42.1681    61.0950 H            1 FFO4002   0.0000
    44 H10         -0.8062    42.7503    65.2466 H            1 FFO4002   0.0000
    45 H11          0.5843    42.0087    63.4201 H            1 FFO4002   0.0000
    46 H12         -2.5060    42.8927    60.6685 H            1 FFO4002   0.0000
    47 H13         -3.8715    43.6254    62.5543 H            1 FFO4002   0.0000
    48 H14         -2.7524    42.3929    66.4654 H            1 FFO4002   0.0000
    49 HA          -4.3704    44.6911    67.2726 H            1 FFO4002   0.0000
    50 HB1         -6.0759    43.1326    67.0027 H            1 FFO4002   0.0000
    51 HB2         -5.7243    43.0190    68.5934 H            1 FFO4002   0.0000
    52 HG1         -4.4190    40.9969    68.1517 H            1 FFO4002   0.0000
    53 HG2         -4.7965    41.1060    66.5667 H            1 FFO4002   0.0000
    54 H5A          2.1101    44.3098    57.6469 H            1 FFO4002   0.0000
    55 H21         -2.1320    45.9366    56.8752 H            1 FFO4002   0.0000
@<TRIPOS>BOND
     1    1    2       2
     2    1   12       1
     3    2    3       1
     4    2    4       1
     5    4    5       1
     6    5    6       2
     7    5    7       1
     8    7    8       1
     9    7   12       2
    10    8    9       1
    11    8   33      am
    12    9   10       1
    13    9   13       1
    14   10   11       1
    15   11   12       1
    16   13   14       1
    17   14   18       1
    18   15   16      ar
    19   15   20      ar
    20   15   21       1
    21   16   17      ar
    22   17   18      ar
    23   18   19      ar
    24   19   20      ar
    25   21   22       2
    26   21   23      am
    27   23   24       1
    28   24   25       1
    29   24   30       1
    30   25   26       1
    31   26   27       1
    32   27   28      ar
    33   27   29      ar
    34   30   31      ar
    35   30   32      ar
    36   33   34       2
    37   33   54       1
    38    3   35       1
    39    3   36       1
    40    9   37       1
    41   10   38       1
    42   10   39       1
    43   11   40       1
    44   13   41       1
    45   13   42       1
    46   14   43       1
    47   16   44       1
    48   17   45       1
    49   19   46       1
    50   20   47       1
    51   23   48       1
    52   24   49       1
    53   25   50       1
    54   25   51       1
    55   26   52       1
    56   26   53       1
    57    4   55       1
@<TRIPOS>SUBSTRUCTURE
     1 FFO4002     1 GROUP             4 D     FFO     0 **** FFO D4002
