@<TRIPOS>MOLECULE
5ero_210_3_ligand
   21    20     1     0     0
SMALL
NO_CHARGES


@<TRIPOS>ATOM
     1 P1           8.1980    47.6080   -18.3230 P.3          1 210804   0.0000
     2 O2           7.5360    48.3420   -17.1780 O.co2        1 210804   0.0000
     3 O3           9.1510    46.5230   -17.8710 O.co2        1 210804  -1.0000
     4 O5           7.2150    47.1750   -19.3840 O.co2        1 210804  -1.0000
     5 C7           9.2310    48.8710   -19.1240 C.3          1 210804   0.0000
     6 P8          10.5240    48.1100   -20.1470 P.3          1 210804   0.0000
     7 O9           9.7850    47.1560   -21.0550 O.co2        1 210804   0.0000
     8 O10         11.1590    49.2800   -20.8650 O.co2        1 210804  -1.0000
     9 O12         11.4560    47.4190   -19.1770 O.co2        1 210804  -1.0000
    10 O14          9.8500    49.6700   -18.1060 O.3          1 210804   0.0000
    11 C16          8.3730    49.7570   -20.0240 C.3          1 210804   0.0000
    12 C19          8.6470    51.2370   -19.7820 C.3          1 210804   0.0000
    13 N22          9.8340    51.6290   -20.5210 N.4          1 210804   1.0000
    14 H1          10.4161    49.0872   -17.5230 H            1 210804   0.0000
    15 H2           7.4083    49.5710   -19.8376 H            1 210804   0.0000
    16 H3           8.5755    49.5416   -20.9793 H            1 210804   0.0000
    17 H4           8.7935    51.3949   -18.8055 H            1 210804   0.0000
    18 H5           7.8653    51.7773   -20.0935 H            1 210804   0.0000
    19 H6           9.5706    51.9398   -21.4343 H            1 210804   0.0000
    20 H7          10.2979    52.3712   -20.0372 H            1 210804   0.0000
    21 H8          10.4509    50.8460   -20.6004 H            1 210804   0.0000
@<TRIPOS>BOND
     1    1    2      ar
     2    1    3      ar
     3    1    4      ar
     4    1    5       1
     5    5    6       1
     6    5   10       1
     7    5   11       1
     8    6    7      ar
     9    6    8      ar
    10    6    9      ar
    11   11   12       1
    12   12   13       1
    13   13   20       1
    14   13   19       1
    15   12   18       1
    16   12   17       1
    17   10   14       1
    18   11   15       1
    19   11   16       1
    20   13   21       1
@<TRIPOS>SUBSTRUCTURE
     1 210804      1 GROUP             4 C     210     0 **** 210 C 804
