@<TRIPOS>MOLECULE
2ag8_NAP_1_ligand
   73    77     1     0     0
SMALL
NO_CHARGES


@<TRIPOS>ATOM
     1 PA          18.5440    23.2050    15.5490 P.3          1 NAP311   0.0000
     2 O1A         17.5240    22.5970    14.6450 O.co2        1 NAP311   0.0000
     3 O2A         19.2650    22.1340    16.3120 O.co2        1 NAP311  -1.0000
     4 O5B         17.7530    24.2660    16.5080 O.3          1 NAP311   0.0000
     5 C5B         16.5540    24.9180    16.1180 C.3          1 NAP311   0.0000
     6 C4B         15.4330    24.5940    17.1090 C.3          1 NAP311   0.0000
     7 O4B         14.3520    25.5130    17.0720 O.3          1 NAP311   0.0000
     8 C3B         14.7910    23.2330    16.8600 C.3          1 NAP311   0.0000
     9 O3B         15.4060    22.2590    17.6750 O.3          1 NAP311   0.0000
    10 C2B         13.3100    23.4210    17.1750 C.3          1 NAP311   0.0000
    11 O2B         12.8700    22.5680    18.2030 O.3          1 NAP311   0.0000
    12 C1B         13.2290    24.8600    17.6520 C.3          1 NAP311   0.0000
    13 N9A         11.9450    25.5280    17.3450 N.pl3        1 NAP311   0.0000
    14 C8A         11.4130    25.7730    16.1070 C.2          1 NAP311   0.0000
    15 N7A         10.2370    26.4170    16.2500 N.2          1 NAP311   0.0000
    16 C5A         10.0060    26.5880    17.5690 C.ar         1 NAP311   0.0000
    17 C6A          8.9590    27.2090    18.2480 C.ar         1 NAP311   0.0000
    18 N6A          8.4560    28.2860    17.6380 N.pl3        1 NAP311   0.0000
    19 N1A          8.9790    27.2250    19.6390 N.ar         1 NAP311   0.0000
    20 C2A         10.0500    26.6810    20.3200 C.ar         1 NAP311   0.0000
    21 N3A         11.0930    26.0880    19.6270 N.ar         1 NAP311   0.0000
    22 C4A         11.0720    26.0390    18.2720 C.ar         1 NAP311   0.0000
    23 O3          19.6160    24.1190    14.7130 O.3          1 NAP311   0.0000
    24 PN          21.0250    24.8110    15.2080 P.3          1 NAP311   0.0000
    25 O1N         22.1540    24.1000    14.5560 O.co2        1 NAP311   0.0000
    26 O2N         21.1100    25.0850    16.6680 O.co2        1 NAP311  -1.0000
    27 O5D         20.8520    26.2770    14.5820 O.3          1 NAP311   0.0000
    28 C5D         19.7190    27.0580    14.9190 C.3          1 NAP311   0.0000
    29 C4D         20.0400    28.5170    14.6250 C.3          1 NAP311   0.0000
    30 O4D         21.4310    28.7470    14.8190 O.3          1 NAP311   0.0000
    31 C3D         19.7060    28.8880    13.1700 C.3          1 NAP311   0.0000
    32 O3D         18.8430    30.0010    13.1560 O.3          1 NAP311   0.0000
    33 C2D         21.0470    29.1840    12.5000 C.3          1 NAP311   0.0000
    34 O2D         20.9690    30.1980    11.5180 O.3          1 NAP311   0.0000
    35 C1D         21.8520    29.5730    13.7430 C.3          1 NAP311   0.0000
    36 N1N         23.3200    29.7410    13.6330 N.ar         1 NAP311   1.0000
    37 C2N         24.2820    28.7410    13.5990 C.ar         1 NAP311   0.0000
    38 C3N         25.6460    29.1160    13.5080 C.ar         1 NAP311   0.0000
    39 C7N         26.6840    28.3500    12.7120 C.2          1 NAP311   0.0000
    40 O7N         27.7050    29.1270    12.0780 O.2          1 NAP311   0.0000
    41 N7N         26.6530    27.0080    12.6240 N.am         1 NAP311   0.0000
    42 C4N         25.9490    30.4710    13.4940 C.ar         1 NAP311   0.0000
    43 C5N         24.9700    31.4450    13.5160 C.ar         1 NAP311   0.0000
    44 C6N         23.6640    31.0510    13.5940 C.ar         1 NAP311   0.0000
    45 P2B         11.8110    21.3790    17.9390 P.3          1 NAP311   0.0000
    46 O1X         12.5690    20.0690    17.7750 O.co2        1 NAP311   0.0000
    47 O2X         11.0060    21.7600    16.7180 O.co2        1 NAP311  -1.0000
    48 O3X         10.8880    21.2900    19.1340 O.co2        1 NAP311  -1.0000
    49 H5B1        16.2894    24.6058    15.2056 H            1 NAP311   0.0000
    50 H5B2        16.7053    25.9063    16.1013 H            1 NAP311   0.0000
    51 H4B         15.8177    24.5969    18.0320 H            1 NAP311   0.0000
    52 H3B         14.8997    22.9822    15.8981 H            1 NAP311   0.0000
    53 H5          16.3809    22.2098    17.4577 H            1 NAP311   0.0000
    54 H2B         12.7571    23.2926    16.3517 H            1 NAP311   0.0000
    55 H1B         13.3489    24.8632    18.6448 H            1 NAP311   0.0000
    56 H8A         11.8303    25.5153    15.2356 H            1 NAP311   0.0000
    57 H6A1         7.7018    28.7915    18.0572 H            1 NAP311   0.0000
    58 H6A2         8.8337    28.5866    16.7622 H            1 NAP311   0.0000
    59 H2A         10.0730    26.7152    21.3191 H            1 NAP311   0.0000
    60 H5D1        19.5085    26.9471    15.8903 H            1 NAP311   0.0000
    61 H5D2        18.9335    26.7678    14.3725 H            1 NAP311   0.0000
    62 H4D         19.5176    29.1027    15.2447 H            1 NAP311   0.0000
    63 H3D         19.2655    28.1133    12.7164 H            1 NAP311   0.0000
    64 H16         18.9999    30.5340    12.3246 H            1 NAP311   0.0000
    65 H2D         21.4206    28.3477    12.0988 H            1 NAP311   0.0000
    66 H18         21.6577    30.0321    10.8122 H            1 NAP311   0.0000
    67 H1D         21.5150    30.4836    13.9823 H            1 NAP311   0.0000
    68 H2N         24.0186    27.7771    13.6379 H            1 NAP311   0.0000
    69 H7N1        27.3493    26.5256    12.0926 H            1 NAP311   0.0000
    70 H7N2        25.9336    26.4929    13.0900 H            1 NAP311   0.0000
    71 H4N         26.9086    30.7511    13.4671 H            1 NAP311   0.0000
    72 H5N         25.2111    32.4147    13.4758 H            1 NAP311   0.0000
    73 H6N         22.9453    31.7457    13.6230 H            1 NAP311   0.0000
@<TRIPOS>BOND
     1    1    2      ar
     2    1    3      ar
     3    1    4       1
     4    1   23       1
     5    4    5       1
     6    5    6       1
     7    6    7       1
     8    6    8       1
     9    7   12       1
    10    8    9       1
    11    8   10       1
    12   10   11       1
    13   10   12       1
    14   11   45       1
    15   12   13       1
    16   13   14       1
    17   13   22       1
    18   14   15       2
    19   15   16       1
    20   16   17      ar
    21   16   22      ar
    22   17   18       1
    23   17   19      ar
    24   19   20      ar
    25   20   21      ar
    26   21   22      ar
    27   23   24       1
    28   24   25      ar
    29   24   26      ar
    30   24   27       1
    31   27   28       1
    32   28   29       1
    33   29   30       1
    34   29   31       1
    35   30   35       1
    36   31   32       1
    37   31   33       1
    38   33   34       1
    39   33   35       1
    40   35   36       1
    41   36   37      ar
    42   36   44      ar
    43   37   38      ar
    44   38   39       1
    45   38   42      ar
    46   39   40       2
    47   39   41      am
    48   42   43      ar
    49   43   44      ar
    50   45   46      ar
    51   45   47      ar
    52   45   48      ar
    53   43   72       1
    54    5   49       1
    55    5   50       1
    56    6   51       1
    57    8   52       1
    58    9   53       1
    59   10   54       1
    60   12   55       1
    61   14   56       1
    62   18   57       1
    63   18   58       1
    64   20   59       1
    65   44   73       1
    66   28   60       1
    67   28   61       1
    68   29   62       1
    69   31   63       1
    70   32   64       1
    71   33   65       1
    72   34   66       1
    73   35   67       1
    74   37   68       1
    75   41   69       1
    76   41   70       1
    77   42   71       1
@<TRIPOS>SUBSTRUCTURE
     1 NAP311      1 GROUP             4 A     NAP     0 **** NAP A 311
