@<TRIPOS>MOLECULE
3gob_HXX_1_ligand
   15    15     1     0     0
SMALL
NO_CHARGES


@<TRIPOS>ATOM
     1 C2          22.9540    -9.7760    34.6200 C.ar         1 HXX601   0.0000
     2 C3          22.5300    -9.8000    36.0310 C.ar         1 HXX601   0.0000
     3 C4          21.2830    -9.1770    36.4130 C.ar         1 HXX601   0.0000
     4 C5          20.4520    -8.5360    35.4470 C.ar         1 HXX601   0.0000
     5 C6          20.8290    -8.4900    34.0610 C.ar         1 HXX601   0.0000
     6 O1'         21.9560    -9.8910    31.3740 O.co2        1 HXX601   0.0000
     7 C1'         22.5220    -9.0800    32.1600 C.2          1 HXX601   0.0000
     8 O2'         23.4090    -8.2450    31.8570 O.co2        1 HXX601  -1.0000
     9 C1          22.0990    -9.1130    33.6090 C.ar         1 HXX601   0.0000
    10 O2          24.1860   -10.3900    34.2310 O.3          1 HXX601   0.0000
    11 CL1         23.4830   -10.5610    37.2810 Cl           1 HXX601   0.0000
    12 CL2         19.7170    -7.6680    32.9790 Cl           1 HXX601   0.0000
    13 H1          20.9978    -9.1957    37.3713 H            1 HXX601   0.0000
    14 H2          19.5944    -8.1123    35.7385 H            1 HXX601   0.0000
    15 H3          24.4726   -10.3730    33.2731 H            1 HXX601   0.0000
@<TRIPOS>BOND
     1    1    2      ar
     2    1    9      ar
     3    1   10       1
     4    2    3      ar
     5    2   11       1
     6    3    4      ar
     7    4    5      ar
     8    5    9      ar
     9    5   12       1
    10    6    7      ar
    11    7    8      ar
    12    7    9       1
    13    3   13       1
    14    4   14       1
    15   10   15       1
@<TRIPOS>SUBSTRUCTURE
     1 HXX601      1 GROUP             4 A     HXX     0 **** HXX A 601
