@<TRIPOS>MOLECULE
3wle_NAD_4_ligand
   70    74     1     0     0
SMALL
NO_CHARGES


@<TRIPOS>ATOM
     1 PA          39.6090    47.3060    30.2380 P.3          1 NAD401   0.0000
     2 O1A         40.0280    47.8100    28.9070 O.co2        1 NAD401   0.0000
     3 O2A         40.8710    47.3500    31.2240 O.co2        1 NAD401  -1.0000
     4 O5B         39.0880    45.7810    30.1140 O.3          1 NAD401   0.0000
     5 C5B         38.0090    45.7330    29.1690 C.3          1 NAD401   0.0000
     6 C4B         37.5410    44.2780    29.0220 C.3          1 NAD401   0.0000
     7 O4B         36.1540    44.2320    28.6170 O.3          1 NAD401   0.0000
     8 C3B         38.3710    43.5400    27.9570 C.3          1 NAD401   0.0000
     9 O3B         38.9360    42.3390    28.5030 O.3          1 NAD401   0.0000
    10 C2B         37.3590    43.2700    26.8290 C.3          1 NAD401   0.0000
    11 O2B         37.6630    42.0790    26.1050 O.3          1 NAD401   0.0000
    12 C1B         36.0130    43.2050    27.5940 C.3          1 NAD401   0.0000
    13 N9A         34.8680    43.5220    26.7150 N.pl3        1 NAD401   0.0000
    14 C8A         34.6890    44.6700    25.9800 C.2          1 NAD401   0.0000
    15 N7A         33.5680    44.6160    25.3210 N.2          1 NAD401   0.0000
    16 C5A         32.9470    43.4450    25.5800 C.ar         1 NAD401   0.0000
    17 C6A         31.7270    42.8320    25.1640 C.ar         1 NAD401   0.0000
    18 N6A         30.8700    43.4820    24.2880 N.pl3        1 NAD401   0.0000
    19 N1A         31.4180    41.6080    25.6410 N.ar         1 NAD401   0.0000
    20 C2A         32.2280    40.9570    26.4900 C.ar         1 NAD401   0.0000
    21 N3A         33.3830    41.4920    26.9080 N.ar         1 NAD401   0.0000
    22 C4A         33.7790    42.7180    26.4810 C.ar         1 NAD401   0.0000
    23 O3          38.3920    48.2390    30.7590 O.3          1 NAD401   0.0000
    24 PN          38.5560    48.7450    32.2990 P.3          1 NAD401   0.0000
    25 O1N         39.8780    49.6340    32.4480 O.co2        1 NAD401   0.0000
    26 O2N         38.6540    47.5930    33.2230 O.co2        1 NAD401  -1.0000
    27 O5D         37.2510    49.6270    32.6810 O.3          1 NAD401   0.0000
    28 C5D         36.1100    48.9490    32.1160 C.3          1 NAD401   0.0000
    29 C4D         34.8600    49.8410    32.1140 C.3          1 NAD401   0.0000
    30 O4D         34.5150    50.2610    33.4700 O.3          1 NAD401   0.0000
    31 C3D         35.0600    51.1270    31.2790 C.3          1 NAD401   0.0000
    32 O3D         33.9010    51.3530    30.4710 O.3          1 NAD401   0.0000
    33 C2D         35.2610    52.2090    32.3420 C.3          1 NAD401   0.0000
    34 O2D         34.9050    53.5010    31.8450 O.3          1 NAD401   0.0000
    35 C1D         34.3590    51.7050    33.4830 C.3          1 NAD401   0.0000
    36 N1N         34.7590    52.2060    34.8100 N.ar         1 NAD401   1.0000
    37 C2N         33.7550    52.6310    35.6790 C.ar         1 NAD401   0.0000
    38 C3N         34.0430    53.0960    36.9280 C.ar         1 NAD401   0.0000
    39 C7N         32.9790    53.5170    37.7910 C.2          1 NAD401   0.0000
    40 O7N         33.2270    54.1490    38.8060 O.2          1 NAD401   0.0000
    41 N7N         31.6930    53.2100    37.5000 N.am         1 NAD401   0.0000
    42 C4N         35.4840    53.1560    37.4260 C.ar         1 NAD401   0.0000
    43 C5N         36.4920    52.6670    36.3980 C.ar         1 NAD401   0.0000
    44 C6N         36.1240    52.2270    35.1980 C.ar         1 NAD401   0.0000
    45 H5B1        38.3228    46.0758    28.2835 H            1 NAD401   0.0000
    46 H5B2        37.2513    46.2980    29.4957 H            1 NAD401   0.0000
    47 H4B         37.6425    43.8101    29.8999 H            1 NAD401   0.0000
    48 H3B         39.1006    44.1364    27.6224 H            1 NAD401   0.0000
    49 H5          38.2012    41.7374    28.8164 H            1 NAD401   0.0000
    50 H2B         37.3468    44.0474    26.2001 H            1 NAD401   0.0000
    51 H7          37.6488    41.2972    26.7283 H            1 NAD401   0.0000
    52 H1B         35.8927    42.3059    28.0149 H            1 NAD401   0.0000
    53 H8A         35.3294    45.4377    25.9552 H            1 NAD401   0.0000
    54 H6A1        30.0180    43.0425    24.0036 H            1 NAD401   0.0000
    55 H6A2        31.1042    44.3901    23.9409 H            1 NAD401   0.0000
    56 H2A         31.9631    40.0505    26.8187 H            1 NAD401   0.0000
    57 H5D1        35.9212    48.1284    32.6555 H            1 NAD401   0.0000
    58 H5D2        36.3225    48.6874    31.1745 H            1 NAD401   0.0000
    59 H4D         34.0945    49.3234    31.7316 H            1 NAD401   0.0000
    60 H3D         35.8749    51.0467    30.7049 H            1 NAD401   0.0000
    61 H17         34.0286    52.1844    29.9302 H            1 NAD401   0.0000
    62 H2D         36.2147    52.2139    32.6426 H            1 NAD401   0.0000
    63 H19         35.4594    54.1977    32.3003 H            1 NAD401   0.0000
    64 H1D         33.4066    51.9477    33.2987 H            1 NAD401   0.0000
    65 H2N         32.8017    52.5939    35.3794 H            1 NAD401   0.0000
    66 H7N1        30.9577    53.5084    38.1085 H            1 NAD401   0.0000
    67 H7N2        31.4784    52.6849    36.6765 H            1 NAD401   0.0000
    68 H4N         35.7394    53.4835    38.3357 H            1 NAD401   0.0000
    69 H5N         37.4642    52.6765    36.6320 H            1 NAD401   0.0000
    70 H6N         36.8215    51.9052    34.5578 H            1 NAD401   0.0000
@<TRIPOS>BOND
     1    1    2      ar
     2    1    3      ar
     3    1    4       1
     4    1   23       1
     5    4    5       1
     6    5    6       1
     7    6    7       1
     8    6    8       1
     9    7   12       1
    10    8    9       1
    11    8   10       1
    12   10   11       1
    13   10   12       1
    14   12   13       1
    15   13   14       1
    16   13   22       1
    17   14   15       2
    18   15   16       1
    19   16   17      ar
    20   16   22      ar
    21   17   18       1
    22   17   19      ar
    23   19   20      ar
    24   20   21      ar
    25   21   22      ar
    26   23   24       1
    27   24   25      ar
    28   24   26      ar
    29   24   27       1
    30   27   28       1
    31   28   29       1
    32   29   30       1
    33   29   31       1
    34   30   35       1
    35   31   32       1
    36   31   33       1
    37   33   34       1
    38   33   35       1
    39   35   36       1
    40   36   37      ar
    41   36   44      ar
    42   37   38      ar
    43   38   39       1
    44   38   42      ar
    45   39   40       2
    46   39   41      am
    47   42   43      ar
    48   43   44      ar
    49   44   70       1
    50    5   45       1
    51    5   46       1
    52    6   47       1
    53    8   48       1
    54    9   49       1
    55   10   50       1
    56   11   51       1
    57   12   52       1
    58   14   53       1
    59   18   54       1
    60   18   55       1
    61   20   56       1
    62   43   69       1
    63   28   57       1
    64   28   58       1
    65   29   59       1
    66   31   60       1
    67   32   61       1
    68   33   62       1
    69   34   63       1
    70   35   64       1
    71   37   65       1
    72   41   66       1
    73   41   67       1
    74   42   68       1
@<TRIPOS>SUBSTRUCTURE
     1 NAD401      1 GROUP             4 D     NAD     0 **** NAD D 401
