@<TRIPOS>MOLECULE
3e8x_NAP_1_ligand
   73    77     1     0     0
SMALL
NO_CHARGES


@<TRIPOS>ATOM
     1 PA          47.6200    26.0480    23.3090 P.3          1 NAP500   0.0000
     2 O1A         47.3310    27.4500    23.8550 O.co2        1 NAP500   0.0000
     3 O2A         49.0030    25.7130    22.7940 O.co2        1 NAP500  -1.0000
     4 O5B         46.4640    25.7460    22.2160 O.3          1 NAP500   0.0000
     5 C5B         45.2920    26.5640    22.0450 C.3          1 NAP500   0.0000
     6 C4B         44.8700    26.7110    20.5840 C.3          1 NAP500   0.0000
     7 O4B         43.5710    27.3300    20.5860 O.3          1 NAP500   0.0000
     8 C3B         45.7840    27.6050    19.7080 C.3          1 NAP500   0.0000
     9 O3B         46.3230    26.9400    18.5510 O.3          1 NAP500   0.0000
    10 C2B         44.8790    28.7300    19.2330 C.3          1 NAP500   0.0000
    11 O2B         45.0900    29.2030    17.8800 O.3          1 NAP500   0.0000
    12 C1B         43.4940    28.0790    19.3780 C.3          1 NAP500   0.0000
    13 N9A         42.4410    29.1260    19.3520 N.pl3        1 NAP500   0.0000
    14 C8A         42.4020    30.2430    20.0950 C.2          1 NAP500   0.0000
    15 N7A         41.3160    30.9590    19.7440 N.2          1 NAP500   0.0000
    16 C5A         40.6760    30.2720    18.7760 C.ar         1 NAP500   0.0000
    17 C6A         39.5150    30.4970    18.0290 C.ar         1 NAP500   0.0000
    18 N6A         38.7800    31.6090    18.2370 N.pl3        1 NAP500   0.0000
    19 N1A         39.1280    29.6180    17.0760 N.ar         1 NAP500   0.0000
    20 C2A         39.8540    28.5200    16.8600 C.ar         1 NAP500   0.0000
    21 N3A         40.9800    28.2680    17.5580 N.ar         1 NAP500   0.0000
    22 C4A         41.4060    29.1260    18.5230 C.ar         1 NAP500   0.0000
    23 O3          47.2680    24.9940    24.5110 O.3          1 NAP500   0.0000
    24 PN          47.9010    23.5120    24.7770 P.3          1 NAP500   0.0000
    25 O1N         49.1240    23.7170    25.6280 O.co2        1 NAP500   0.0000
    26 O2N         47.8410    22.7830    23.4530 O.co2        1 NAP500  -1.0000
    27 O5D         46.9070    22.8350    25.8400 O.3          1 NAP500   0.0000
    28 C5D         45.6560    22.2930    25.4340 C.3          1 NAP500   0.0000
    29 C4D         44.6360    22.6450    26.5020 C.3          1 NAP500   0.0000
    30 O4D         44.9630    22.0470    27.7570 O.3          1 NAP500   0.0000
    31 C3D         44.5860    24.1450    26.7540 C.3          1 NAP500   0.0000
    32 O3D         43.7090    24.7490    25.7910 O.3          1 NAP500   0.0000
    33 C2D         44.1950    24.2590    28.2310 C.3          1 NAP500   0.0000
    34 O2D         42.8520    24.6500    28.4190 O.3          1 NAP500   0.0000
    35 C1D         44.3900    22.8390    28.8130 C.3          1 NAP500   0.0000
    36 N1N         45.2200    22.7420    30.0540 N.ar         1 NAP500   1.0000
    37 C2N         46.3780    23.4280    30.2130 C.ar         1 NAP500   0.0000
    38 C3N         47.1320    23.2870    31.3980 C.ar         1 NAP500   0.0000
    39 C7N         48.4500    23.9980    31.6120 C.2          1 NAP500   0.0000
    40 O7N         49.2150    23.5800    32.5010 O.2          1 NAP500   0.0000
    41 N7N         48.7740    25.0160    30.7970 N.am         1 NAP500   0.0000
    42 C4N         46.6730    22.4340    32.4040 C.ar         1 NAP500   0.0000
    43 C5N         45.4900    21.7410    32.2120 C.ar         1 NAP500   0.0000
    44 C6N         44.7930    21.9150    31.0280 C.ar         1 NAP500   0.0000
    45 P2B         46.3980    30.0430    17.3650 P.3          1 NAP500   0.0000
    46 O1X         47.4210    29.0150    16.9620 O.co2        1 NAP500   0.0000
    47 O2X         45.8740    30.8310    16.1680 O.co2        1 NAP500  -1.0000
    48 O3X         46.8170    30.8360    18.5850 O.co2        1 NAP500  -1.0000
    49 H5B1        45.4825    27.4737    22.4141 H            1 NAP500   0.0000
    50 H5B2        44.5376    26.1491    22.5537 H            1 NAP500   0.0000
    51 H4B         44.8014    25.8039    20.1686 H            1 NAP500   0.0000
    52 H3B         46.5276    27.9781    20.2629 H            1 NAP500   0.0000
    53 H5          46.8989    27.5770    18.0386 H            1 NAP500   0.0000
    54 H2B         44.9496    29.5003    19.8667 H            1 NAP500   0.0000
    55 H1B         43.3477    27.4507    18.6139 H            1 NAP500   0.0000
    56 H8A         43.0690    30.5013    20.7939 H            1 NAP500   0.0000
    57 H6A1        37.9504    31.7674    17.7016 H            1 NAP500   0.0000
    58 H6A2        39.0648    32.2748    18.9266 H            1 NAP500   0.0000
    59 H2A         39.5559    27.8676    16.1632 H            1 NAP500   0.0000
    60 H5D1        45.7275    21.2996    25.3447 H            1 NAP500   0.0000
    61 H5D2        45.3817    22.6876    24.5570 H            1 NAP500   0.0000
    62 H4D         43.7326    22.3292    26.2118 H            1 NAP500   0.0000
    63 H3D         45.5043    24.5223    26.6341 H            1 NAP500   0.0000
    64 H16         43.7272    24.2175    24.9441 H            1 NAP500   0.0000
    65 H2D         44.8040    24.9025    28.6947 H            1 NAP500   0.0000
    66 H18         42.6554    24.7073    29.3978 H            1 NAP500   0.0000
    67 H1D         43.4855    22.4658    29.0195 H            1 NAP500   0.0000
    68 H2N         46.6997    24.0367    29.4877 H            1 NAP500   0.0000
    69 H7N1        49.6405    25.4995    30.9211 H            1 NAP500   0.0000
    70 H7N2        48.1486    25.2901    30.0664 H            1 NAP500   0.0000
    71 H4N         47.1920    22.3252    33.2518 H            1 NAP500   0.0000
    72 H5N         45.1437    21.1235    32.9183 H            1 NAP500   0.0000
    73 H6N         43.9418    21.4083    30.8911 H            1 NAP500   0.0000
@<TRIPOS>BOND
     1    1    2      ar
     2    1    3      ar
     3    1    4       1
     4    1   23       1
     5    4    5       1
     6    5    6       1
     7    6    7       1
     8    6    8       1
     9    7   12       1
    10    8    9       1
    11    8   10       1
    12   10   11       1
    13   10   12       1
    14   11   45       1
    15   12   13       1
    16   13   14       1
    17   13   22       1
    18   14   15       2
    19   15   16       1
    20   16   17      ar
    21   16   22      ar
    22   17   18       1
    23   17   19      ar
    24   19   20      ar
    25   20   21      ar
    26   21   22      ar
    27   23   24       1
    28   24   25      ar
    29   24   26      ar
    30   24   27       1
    31   27   28       1
    32   28   29       1
    33   29   30       1
    34   29   31       1
    35   30   35       1
    36   31   32       1
    37   31   33       1
    38   33   34       1
    39   33   35       1
    40   35   36       1
    41   36   37      ar
    42   36   44      ar
    43   37   38      ar
    44   38   39       1
    45   38   42      ar
    46   39   40       2
    47   39   41      am
    48   42   43      ar
    49   43   44      ar
    50   45   46      ar
    51   45   47      ar
    52   45   48      ar
    53   43   72       1
    54    5   49       1
    55    5   50       1
    56    6   51       1
    57    8   52       1
    58    9   53       1
    59   10   54       1
    60   12   55       1
    61   14   56       1
    62   18   57       1
    63   18   58       1
    64   20   59       1
    65   44   73       1
    66   28   60       1
    67   28   61       1
    68   29   62       1
    69   31   63       1
    70   32   64       1
    71   33   65       1
    72   34   66       1
    73   35   67       1
    74   37   68       1
    75   41   69       1
    76   41   70       1
    77   42   71       1
@<TRIPOS>SUBSTRUCTURE
     1 NAP500      1 GROUP             4 A     NAP     0 **** NAP A 500
