@<TRIPOS>MOLECULE
5dx1_SFG_3_ligand
   51    53     1     0     0
SMALL
NO_CHARGES


@<TRIPOS>ATOM
     1 N           16.6580    15.8560    91.1180 N.4          1 SFG501   1.0000
     2 CA          15.3350    15.3860    90.7440 C.3          1 SFG501   0.0000
     3 C           15.4980    14.1830    89.8530 C.2          1 SFG501   0.0000
     4 O           14.5380    13.3830    89.7230 O.co2        1 SFG501   0.0000
     5 OXT         16.6210    14.0120    89.3040 O.co2        1 SFG501  -1.0000
     6 CB          14.5190    16.4600    90.0470 C.3          1 SFG501   0.0000
     7 CG          15.3750    17.2480    89.0650 C.3          1 SFG501   0.0000
     8 CD          14.5940    18.3240    88.3440 C.3          1 SFG501   0.0000
     9 NE          14.9650    18.2730    86.9330 N.4          1 SFG501   1.0000
    10 C5'         14.9810    19.7150    88.8190 C.3          1 SFG501   0.0000
    11 C4'         14.6010    20.0100    90.2580 C.3          1 SFG501   0.0000
    12 O4'         15.3750    21.1290    90.6110 O.3          1 SFG501   0.0000
    13 C3'         13.1580    20.4690    90.4250 C.3          1 SFG501   0.0000
    14 O3'         12.6260    19.8650    91.5650 O.3          1 SFG501   0.0000
    15 C2'         13.1970    21.9670    90.6280 C.3          1 SFG501   0.0000
    16 O2'         12.1850    22.4380    91.5180 O.3          1 SFG501   0.0000
    17 C1'         14.5660    22.0850    91.2560 C.3          1 SFG501   0.0000
    18 N9          15.1700    23.4130    91.1360 N.pl3        1 SFG501   0.0000
    19 C8          15.2280    24.1770    90.0390 C.2          1 SFG501   0.0000
    20 N7          15.8670    25.3370    90.2970 N.2          1 SFG501   0.0000
    21 C5          16.2150    25.3010    91.5840 C.ar         1 SFG501   0.0000
    22 C6          16.9280    26.2150    92.4820 C.ar         1 SFG501   0.0000
    23 N6          17.3420    27.3950    91.9740 N.pl3        1 SFG501   0.0000
    24 N1          17.1290    25.8280    93.7660 N.ar         1 SFG501   0.0000
    25 C2          16.6790    24.6360    94.2220 C.ar         1 SFG501   0.0000
    26 N3          16.0060    23.7420    93.4490 N.ar         1 SFG501   0.0000
    27 C4          15.7520    24.0340    92.1450 C.ar         1 SFG501   0.0000
    28 H1          16.6313    16.8448    91.2649 H            1 SFG501   0.0000
    29 H2          16.9474    15.4015    91.9604 H            1 SFG501   0.0000
    30 HA          14.8506    15.1054    91.5726 H            1 SFG501   0.0000
    31 HB1         14.1492    17.0861    90.7334 H            1 SFG501   0.0000
    32 HB2         13.7664    16.0276    89.5503 H            1 SFG501   0.0000
    33 HG1         15.7490    16.6152    88.3870 H            1 SFG501   0.0000
    34 HG2         16.1244    17.6789    89.5678 H            1 SFG501   0.0000
    35 HD          13.6110    18.1769    88.4537 H            1 SFG501   0.0000
    36 HE1         14.4619    18.9761    86.4304 H            1 SFG501   0.0000
    37 HE2         15.9473    18.4357    86.8405 H            1 SFG501   0.0000
    38 H5'1        14.5268    20.3846    88.2313 H            1 SFG501   0.0000
    39 H5'2        15.9723    19.8119    88.7304 H            1 SFG501   0.0000
    40 H4'         14.8024    19.2306    90.8512 H            1 SFG501   0.0000
    41 H3'         12.6173    20.2359    89.6167 H            1 SFG501   0.0000
    42 H15         13.3562    19.7058    92.2295 H            1 SFG501   0.0000
    43 H2'         13.1597    22.4497    89.7530 H            1 SFG501   0.0000
    44 H17         12.3019    22.0079    92.4132 H            1 SFG501   0.0000
    45 H1'         14.4976    21.8483    92.2252 H            1 SFG501   0.0000
    46 H19         14.8493    23.9228    89.1491 H            1 SFG501   0.0000
    47 H20         17.8316    28.0452    92.5549 H            1 SFG501   0.0000
    48 H21         17.1591    27.6190    91.0167 H            1 SFG501   0.0000
    49 H22         16.8505    24.3999    95.1785 H            1 SFG501   0.0000
    50 H23         17.3059    15.6452    90.3860 H            1 SFG501   0.0000
    51 HE3         14.7399    17.3723    86.5615 H            1 SFG501   0.0000
@<TRIPOS>BOND
     1    1    2       1
     2    2    3       1
     3    2    6       1
     4    3    4      ar
     5    3    5      ar
     6    6    7       1
     7    7    8       1
     8    8    9       1
     9    8   10       1
    10   10   11       1
    11   11   12       1
    12   11   13       1
    13   12   17       1
    14   13   14       1
    15   13   15       1
    16   15   16       1
    17   15   17       1
    18   17   18       1
    19   18   19       1
    20   18   27       1
    21   19   20       2
    22   20   21       1
    23   21   22      ar
    24   21   27      ar
    25   22   23       1
    26   22   24      ar
    27   24   25      ar
    28   25   26      ar
    29   26   27      ar
    30    1   28       1
    31    1   29       1
    32    2   30       1
    33    1   50       1
    34    6   31       1
    35    6   32       1
    36    7   33       1
    37    7   34       1
    38    8   35       1
    39    9   36       1
    40    9   37       1
    41   10   38       1
    42   10   39       1
    43   11   40       1
    44   13   41       1
    45   14   42       1
    46   15   43       1
    47   16   44       1
    48   17   45       1
    49   19   46       1
    50   23   47       1
    51   23   48       1
    52   25   49       1
    53    9   51       1
@<TRIPOS>SUBSTRUCTURE
     1 SFG501      1 GROUP             4 C     SFG     0 **** SFG C 501
