@<TRIPOS>MOLECULE
1hv5_RXP_18_ligand
   92    96     1     0     0
SMALL
NO_CHARGES


@<TRIPOS>ATOM
     1 N1         107.3440   119.2440    77.9450 N.am         1 RXP6006   0.0000
     2 N2         109.5970   116.8380    77.0170 N.am         1 RXP6006   0.0000
     3 C1         108.3750   117.5410    76.7030 C.3          1 RXP6006   0.0000
     4 C2         107.5490   116.8580    75.6260 C.3          1 RXP6006   0.0000
     5 C3         106.3640   117.6340    75.0870 C.2          1 RXP6006   0.0000
     6 C4         106.4520   118.3710    73.9550 C.ar         1 RXP6006   0.0000
     7 C5         105.0610   117.6990    75.6330 C.2          1 RXP6006   0.0000
     8 N3         104.2740   118.4920    74.9110 N.pl3        1 RXP6006   0.0000
     9 C6         105.0330   118.9450    73.8410 C.ar         1 RXP6006   0.0000
    10 C7         107.5220   118.6800    72.8990 C.ar         1 RXP6006   0.0000
    11 C8         104.6220   119.8490    72.6680 C.ar         1 RXP6006   0.0000
    12 C9         107.0960   119.5410    71.7330 C.ar         1 RXP6006   0.0000
    13 C10        105.6640   120.1530    71.5720 C.ar         1 RXP6006   0.0000
    14 C11        107.6310   117.9410    78.0130 C.2          1 RXP6006   0.0000
    15 O1         107.0930   117.1100    78.7010 O.2          1 RXP6006   0.0000
    16 O2         110.9940   118.6600    77.1790 O.2          1 RXP6006   0.0000
    17 C12        110.7890   117.4440    77.2820 C.2          1 RXP6006   0.0000
    18 C13        112.7400   116.9240    78.9330 C.3          1 RXP6006   0.0000
    19 C14        111.2910   114.8360    82.0100 C.ar         1 RXP6006   0.0000
    20 C15        110.7620   113.4660    81.9400 C.ar         1 RXP6006   0.0000
    21 C16        110.2770   112.7320    83.1550 C.ar         1 RXP6006   0.0000
    22 C17        110.2620   113.4230    84.4330 C.ar         1 RXP6006   0.0000
    23 C18        110.7620   114.8150    84.5150 C.ar         1 RXP6006   0.0000
    24 C19        111.2710   115.5650    83.2880 C.ar         1 RXP6006   0.0000
    25 C20        112.0140   116.5320    77.6560 C.3          1 RXP6006   0.0000
    26 C38        111.9160   116.6320    80.1770 C.3          1 RXP6006   0.0000
    27 C39        111.5650   115.2700    80.6460 C.3          1 RXP6006   0.0000
    28 C21        113.0660   116.7050    76.4620 C.3          1 RXP6006   0.0000
    29 P          114.3780   115.5810    75.9820 P.3          1 RXP6006   0.0000
    30 O1P        113.6860   114.3900    75.8320 O.co2        1 RXP6006   0.0000
    31 O2P        115.4660   115.5190    76.8700 O.co2        1 RXP6006  -1.0000
    32 N4         113.8760   115.8560    73.3760 N.am         1 RXP6006   0.0000
    33 C22        115.0020   115.7310    74.2940 C.3          1 RXP6006   0.0000
    34 C23        115.8280   114.4630    73.8560 C.3          1 RXP6006   0.0000
    35 C24        116.7600   114.6140    72.8180 C.ar         1 RXP6006   0.0000
    36 C25        116.3600   114.4440    71.3360 C.ar         1 RXP6006   0.0000
    37 C26        118.1440   115.0260    73.1930 C.ar         1 RXP6006   0.0000
    38 C27        117.3410   114.7680    70.2670 C.ar         1 RXP6006   0.0000
    39 C28        119.1640   115.3250    72.0700 C.ar         1 RXP6006   0.0000
    40 C29        118.7610   115.2310    70.6060 C.ar         1 RXP6006   0.0000
    41 C30        113.6220   116.4540    72.1030 C.2          1 RXP6006   0.0000
    42 O5         112.5330   116.1870    71.5040 O.2          1 RXP6006   0.0000
    43 O6         114.7670   117.0820    71.4130 O.3          1 RXP6006   0.0000
    44 C31        114.8320   117.4770    69.8380 C.3          1 RXP6006   0.0000
    45 C32        114.1300   116.6530    68.7670 C.ar         1 RXP6006   0.0000
    46 C33        114.0890   115.1250    68.6420 C.ar         1 RXP6006   0.0000
    47 C34        113.1750   114.3470    67.6750 C.ar         1 RXP6006   0.0000
    48 C35        112.2960   115.2000    66.6560 C.ar         1 RXP6006   0.0000
    49 C36        112.3930   116.7740    66.6390 C.ar         1 RXP6006   0.0000
    50 C37        113.3100   117.4480    67.7710 C.ar         1 RXP6006   0.0000
    51 H1         106.8625   119.6900    78.6995 H            1 RXP6006   0.0000
    52 H2         107.6107   119.7734    77.1396 H            1 RXP6006   0.0000
    53 H3         109.5666   115.8388    77.0417 H            1 RXP6006   0.0000
    54 H4         108.6693   118.4058    76.2962 H            1 RXP6006   0.0000
    55 H5         107.2026   116.0008    76.0070 H            1 RXP6006   0.0000
    56 H6         108.1570   116.6595    74.8573 H            1 RXP6006   0.0000
    57 H7         104.7689   117.2116    76.4559 H            1 RXP6006   0.0000
    58 H8         103.3189   118.7183    75.1024 H            1 RXP6006   0.0000
    59 H9         108.4549   118.3288    72.9788 H            1 RXP6006   0.0000
    60 H10        103.6995   120.2316    72.6164 H            1 RXP6006   0.0000
    61 H11        107.7705   119.7318    71.0198 H            1 RXP6006   0.0000
    62 H12        105.4322   120.7229    70.7837 H            1 RXP6006   0.0000
    63 H13        112.9397   117.9034    78.9019 H            1 RXP6006   0.0000
    64 H14        113.5965   116.4107    78.9866 H            1 RXP6006   0.0000
    65 H15        110.7242   113.0078    81.0520 H            1 RXP6006   0.0000
    66 H16        109.9692   111.7830    83.0865 H            1 RXP6006   0.0000
    67 H17        109.9169   112.9625    85.2508 H            1 RXP6006   0.0000
    68 H18        110.7660   115.2772    85.4018 H            1 RXP6006   0.0000
    69 H19        111.5789   116.5144    83.3498 H            1 RXP6006   0.0000
    70 H20        111.7206   115.5777    77.7129 H            1 RXP6006   0.0000
    71 H21        111.0446   117.1030    80.0400 H            1 RXP6006   0.0000
    72 H22        112.4102   117.0590    80.9342 H            1 RXP6006   0.0000
    73 H23        110.7409   115.0297    80.1330 H            1 RXP6006   0.0000
    74 H24        112.3250   114.6943    80.3445 H            1 RXP6006   0.0000
    75 H25        113.5301   117.5693    76.6556 H            1 RXP6006   0.0000
    76 H26        112.5041   116.8050    75.6409 H            1 RXP6006   0.0000
    77 H27        113.0612   115.4000    73.7339 H            1 RXP6006   0.0000
    78 H28        115.5796   116.5443    74.2242 H            1 RXP6006   0.0000
    79 H29        115.1722   113.7649    73.5684 H            1 RXP6006   0.0000
    80 H30        116.3273   114.1403    74.6601 H            1 RXP6006   0.0000
    81 H31        115.4456   114.1176    71.0967 H            1 RXP6006   0.0000
    82 H32        118.4075   115.1074    74.1542 H            1 RXP6006   0.0000
    83 H33        117.0686   114.6820    69.3087 H            1 RXP6006   0.0000
    84 H34        120.1000   115.5833    72.3090 H            1 RXP6006   0.0000
    85 H35        119.4087   115.4662    69.8813 H            1 RXP6006   0.0000
    86 H36        115.8013   117.4870    69.5922 H            1 RXP6006   0.0000
    87 H37        114.4605   118.4027    69.7666 H            1 RXP6006   0.0000
    88 H38        114.6995   114.5950    69.2305 H            1 RXP6006   0.0000
    89 H39        113.1353   113.3479    67.6867 H            1 RXP6006   0.0000
    90 H40        111.6783   114.7339    66.0226 H            1 RXP6006   0.0000
    91 H41        111.9084   117.3236    65.9584 H            1 RXP6006   0.0000
    92 H42        113.3419   118.4462    67.8217 H            1 RXP6006   0.0000
@<TRIPOS>BOND
     1    1   14      am
     2    2    3       1
     3    2   17      am
     4    3    4       1
     5    3   14       1
     6    4    5       1
     7    5    6       1
     8    5    7       2
     9    6    9      ar
    10    6   10      ar
    11    7    8       1
    12    8    9       1
    13    9   11      ar
    14   10   12      ar
    15   11   13      ar
    16   12   13      ar
    17   14   15       2
    18   16   17       2
    19   17   25       1
    20   18   25       1
    21   18   26       1
    22   19   20      ar
    23   19   24      ar
    24   19   27       1
    25   20   21      ar
    26   21   22      ar
    27   22   23      ar
    28   23   24      ar
    29   25   28       1
    30   26   27       1
    31   28   29       1
    32   29   30      ar
    33   29   31      ar
    34   29   33       1
    35   32   33       1
    36   32   41      am
    37   33   34       1
    38   34   35       1
    39   35   36      ar
    40   35   37      ar
    41   36   38      ar
    42   37   39      ar
    43   38   40      ar
    44   39   40      ar
    45   41   42       2
    46   41   43       1
    47   43   44       1
    48   44   45       1
    49   45   46      ar
    50   45   50      ar
    51   46   47      ar
    52   47   48      ar
    53   48   49      ar
    54   49   50      ar
    55    1   51       1
    56    1   52       1
    57    2   53       1
    58    3   54       1
    59    4   55       1
    60    4   56       1
    61    7   57       1
    62    8   58       1
    63   10   59       1
    64   11   60       1
    65   12   61       1
    66   13   62       1
    67   18   63       1
    68   18   64       1
    69   20   65       1
    70   21   66       1
    71   22   67       1
    72   23   68       1
    73   24   69       1
    74   25   70       1
    75   26   71       1
    76   26   72       1
    77   27   73       1
    78   27   74       1
    79   28   75       1
    80   28   76       1
    81   50   92       1
    82   32   77       1
    83   33   78       1
    84   34   79       1
    85   34   80       1
    86   36   81       1
    87   37   82       1
    88   38   83       1
    89   39   84       1
    90   40   85       1
    91   44   86       1
    92   44   87       1
    93   46   88       1
    94   47   89       1
    95   48   90       1
    96   49   91       1
@<TRIPOS>SUBSTRUCTURE
     1 RXP6006     1 GROUP             4 F     RXP     0 **** RXP F6006
