@<TRIPOS>MOLECULE
2bu2_ATP_2_ligand
   43    45     1     0     0
SMALL
NO_CHARGES


@<TRIPOS>ATOM
     1 PG          42.2970    33.0060    67.2790 P.3          1 ATP1386   0.0000
     2 O1G         42.8680    33.1350    68.5390 O.co2        1 ATP1386   0.0000
     3 O2G         41.7130    34.2380    66.9320 O.co2        1 ATP1386  -1.0000
     4 O3G         43.3170    32.7190    66.3340 O.co2        1 ATP1386  -1.0000
     5 PB          39.7880    32.2950    66.9480 P.3          1 ATP1386   0.0000
     6 O1B         38.8980    31.1350    67.1760 O.co2        1 ATP1386   0.0000
     7 O2B         39.6950    32.7800    65.5530 O.co2        1 ATP1386  -1.0000
     8 O3B         41.3340    31.8950    67.3080 O.3          1 ATP1386   0.0000
     9 PA          38.8100    34.9410    67.9610 P.3          1 ATP1386   0.0000
    10 O1A         39.2440    35.5950    66.7530 O.co2        1 ATP1386   0.0000
    11 O2A         38.9610    35.6210    69.2630 O.co2        1 ATP1386  -1.0000
    12 O3A         39.4170    33.4490    67.9860 O.3          1 ATP1386   0.0000
    13 O5'         37.2250    34.8060    67.9700 O.3          1 ATP1386   0.0000
    14 C5'         36.7690    33.7140    67.2470 C.3          1 ATP1386   0.0000
    15 C4'         35.4500    33.1190    67.2760 C.3          1 ATP1386   0.0000
    16 O4'         34.3230    33.9170    66.8200 O.3          1 ATP1386   0.0000
    17 C3'         35.7140    32.0850    66.1660 C.3          1 ATP1386   0.0000
    18 O3'         36.2590    30.8830    66.7520 O.3          1 ATP1386   0.0000
    19 C2'         34.4360    31.9900    65.3490 C.3          1 ATP1386   0.0000
    20 O2'         33.6370    30.9640    65.8890 O.3          1 ATP1386   0.0000
    21 C1'         33.8130    33.3920    65.6030 C.3          1 ATP1386   0.0000
    22 N9          34.0590    34.4690    64.5920 N.pl3        1 ATP1386   0.0000
    23 C8          34.9540    35.5330    64.5830 C.2          1 ATP1386   0.0000
    24 N7          34.9270    36.2910    63.5420 N.2          1 ATP1386   0.0000
    25 C5          33.9350    35.7190    62.7770 C.ar         1 ATP1386   0.0000
    26 C6          33.3610    36.0060    61.4710 C.ar         1 ATP1386   0.0000
    27 N6          33.7730    37.0500    60.7580 N.pl3        1 ATP1386   0.0000
    28 N1          32.3370    35.1910    60.9660 N.ar         1 ATP1386   0.0000
    29 C2          31.9000    34.1110    61.6850 C.ar         1 ATP1386   0.0000
    30 N3          32.3850    33.7660    62.9130 N.ar         1 ATP1386   0.0000
    31 C4          33.3910    34.5720    63.3940 C.ar         1 ATP1386   0.0000
    32 H5'1        37.3891    32.9692    67.4936 H            1 ATP1386   0.0000
    33 H5'2        36.9135    33.9649    66.2898 H            1 ATP1386   0.0000
    34 H4'         35.2613    32.6795    68.1542 H            1 ATP1386   0.0000
    35 H3'         36.4185    32.4674    65.5682 H            1 ATP1386   0.0000
    36 H5          37.2567    30.9469    66.7766 H            1 ATP1386   0.0000
    37 H2'         34.6267    31.8395    64.3790 H            1 ATP1386   0.0000
    38 H7          33.8105    30.8882    66.8709 H            1 ATP1386   0.0000
    39 H1'         32.8244    33.2794    65.7030 H            1 ATP1386   0.0000
    40 H9          35.5832    35.7003    65.3420 H            1 ATP1386   0.0000
    41 H10         33.3690    37.2344    59.8620 H            1 ATP1386   0.0000
    42 H11         34.4869    37.6508    61.1178 H            1 ATP1386   0.0000
    43 H12         31.1820    33.5405    61.2862 H            1 ATP1386   0.0000
@<TRIPOS>BOND
     1    1    2      ar
     2    1    3      ar
     3    1    4      ar
     4    1    8       1
     5    5    6      ar
     6    5    7      ar
     7    5    8       1
     8    5   12       1
     9    9   10      ar
    10    9   11      ar
    11    9   12       1
    12    9   13       1
    13   13   14       1
    14   14   15       1
    15   15   16       1
    16   15   17       1
    17   16   21       1
    18   17   18       1
    19   17   19       1
    20   19   20       1
    21   19   21       1
    22   21   22       1
    23   22   23       1
    24   22   31       1
    25   23   24       2
    26   24   25       1
    27   25   26      ar
    28   25   31      ar
    29   26   27       1
    30   26   28      ar
    31   28   29      ar
    32   29   30      ar
    33   30   31      ar
    34   29   43       1
    35   27   42       1
    36   27   41       1
    37   23   40       1
    38   14   32       1
    39   14   33       1
    40   15   34       1
    41   17   35       1
    42   18   36       1
    43   19   37       1
    44   20   38       1
    45   21   39       1
@<TRIPOS>SUBSTRUCTURE
     1 ATP1386     1 GROUP             4 A     ATP     0 **** ATP A1386
