@<TRIPOS>MOLECULE
3q6k_SRO_2_ligand
   25    26     1     0     0
SMALL
NO_CHARGES


@<TRIPOS>ATOM
     1 OH          38.0450   -27.2860   -11.3390 O.3          1 SRO383   0.0000
     2 CZ3         37.5130   -26.1880   -11.9580 C.ar         1 SRO383   0.0000
     3 CH2         36.3490   -26.3240   -12.7420 C.ar         1 SRO383   0.0000
     4 CZ2         35.8190   -25.1970   -13.3790 C.ar         1 SRO383   0.0000
     5 CE2         36.4790   -23.9710   -13.1980 C.ar         1 SRO383   0.0000
     6 NE1         36.2760   -22.6910   -13.6260 N.pl3        1 SRO383   0.0000
     7 CD1         37.2550   -21.8780   -13.1270 C.2          1 SRO383   0.0000
     8 CG          38.1180   -22.6370   -12.3550 C.2          1 SRO383   0.0000
     9 CD2         37.6250   -23.9520   -12.4010 C.ar         1 SRO383   0.0000
    10 CE3         38.0970   -25.0280   -11.8160 C.ar         1 SRO383   0.0000
    11 CB          39.3250   -22.1030   -11.6200 C.3          1 SRO383   0.0000
    12 CA          40.5640   -22.9510   -11.9020 C.3          1 SRO383   0.0000
    13 NZ          41.3030   -23.2140   -10.6900 N.3          1 SRO383   0.0000
    14 HH          38.8704   -27.1950   -10.7818 H            1 SRO383   0.0000
    15 HH2         35.9075   -27.2157   -12.8415 H            1 SRO383   0.0000
    16 HZ2         34.9970   -25.2624   -13.9447 H            1 SRO383   0.0000
    17 HE1         35.5250   -22.3931   -14.2153 H            1 SRO383   0.0000
    18 HD1         37.3349   -20.8950   -13.2926 H            1 SRO383   0.0000
    19 HE3         38.9191   -24.9586   -11.2509 H            1 SRO383   0.0000
    20 HB1         39.1394   -22.1134   -10.6374 H            1 SRO383   0.0000
    21 HB2         39.4982   -21.1638   -11.9166 H            1 SRO383   0.0000
    22 HA1         41.1543   -22.4625   -12.5446 H            1 SRO383   0.0000
    23 HA2         40.2793   -23.8205   -12.3057 H            1 SRO383   0.0000
    24 HZ1         41.1780   -22.4543   -10.0519 H            1 SRO383   0.0000
    25 H12         40.9684   -24.0587   -10.2722 H            1 SRO383   0.0000
@<TRIPOS>BOND
     1    1    2       1
     2    2    3      ar
     3    2   10      ar
     4    3    4      ar
     5    4    5      ar
     6    5    6       1
     7    5    9      ar
     8    6    7       1
     9    7    8       2
    10    8    9       1
    11    8   11       1
    12    9   10      ar
    13   11   12       1
    14   12   13       1
    15    1   14       1
    16    3   15       1
    17    4   16       1
    18    6   17       1
    19    7   18       1
    20   10   19       1
    21   11   20       1
    22   11   21       1
    23   12   22       1
    24   12   23       1
    25   13   25       1
    26   13   24       1
@<TRIPOS>SUBSTRUCTURE
     1 SRO383      1 GROUP             4 B     SRO     0 **** SRO B 383
