@<TRIPOS>MOLECULE
3o0g_3O0_1_ligand
   36    38     1     0     0
SMALL
NO_CHARGES


@<TRIPOS>ATOM
     1 CLA         -3.5840    67.0120    61.6530 Cl           1 3O0293   0.0000
     2 NAA         -7.4780    58.5100    57.2400 N.pl3        1 3O0293   0.0000
     3 CAC         -6.8320    59.0240    63.8580 C.ar         1 3O0293   0.0000
     4 CAD         -6.9870    59.0860    62.4710 C.ar         1 3O0293   0.0000
     5 CAE         -6.8760    57.9330    61.7000 C.ar         1 3O0293   0.0000
     6 CAF         -7.0430    57.9580    60.1840 C.2          1 3O0293   0.0000
     7 CAG         -6.6390    59.2000    59.3770 C.2          1 3O0293   0.0000
     8 CAH         -6.8670    59.4110    58.0110 C.2          1 3O0293   0.0000
     9 NAI         -6.4290    60.6020    57.5390 N.2          1 3O0293   0.0000
    10 CAJ         -4.2940    64.6470    58.5180 C.ar         1 3O0293   0.0000
    11 CAK         -3.8620    65.7040    59.3170 C.ar         1 3O0293   0.0000
    12 CAL         -4.1280    65.6850    60.6830 C.ar         1 3O0293   0.0000
    13 CAM         -6.5660    57.8000    64.4760 C.ar         1 3O0293   0.0000
    14 CAN         -6.4640    56.6470    63.6980 C.ar         1 3O0293   0.0000
    15 CAO         -6.6230    56.7170    62.3190 C.ar         1 3O0293   0.0000
    16 OAP         -7.5210    56.9810    59.6180 O.2          1 3O0293   0.0000
    17 SAQ         -5.8600    60.5720    59.9820 S.3          1 3O0293   0.0000
    18 CAR         -5.8480    61.3800    58.4740 C.2          1 3O0293   0.0000
    19 NAS         -5.3510    62.5970    58.2040 N.pl3        1 3O0293   0.0000
    20 CAT         -4.9830    63.5610    59.0640 C.ar         1 3O0293   0.0000
    21 CAU         -5.2440    63.5410    60.4430 C.ar         1 3O0293   0.0000
    22 CAV         -4.8180    64.6030    61.2520 C.ar         1 3O0293   0.0000
    23 OAW         -5.9380    55.3250    65.6300 O.co2        1 3O0293   0.0000
    24 NAX         -6.2240    55.4630    64.2350 N.2          1 3O0293   1.0000
    25 OAY         -6.2770    54.3090    63.4020 O.co2        1 3O0293  -1.0000
    26 HAA1        -7.6219    58.6986    56.2685 H            1 3O0293   0.0000
    27 HAA2        -7.7921    57.6460    57.6335 H            1 3O0293   0.0000
    28 HAC         -6.9114    59.8554    64.4080 H            1 3O0293   0.0000
    29 HAD         -7.1786    59.9630    62.0303 H            1 3O0293   0.0000
    30 HAJ         -4.1074    64.6662    57.5358 H            1 3O0293   0.0000
    31 HAK         -3.3643    66.4708    58.9116 H            1 3O0293   0.0000
    32 HAM         -6.4497    57.7508    65.4680 H            1 3O0293   0.0000
    33 HAO         -6.5546    55.8848    61.7687 H            1 3O0293   0.0000
    34 HAS         -5.2399    62.8150    57.2344 H            1 3O0293   0.0000
    35 HAU         -5.7339    62.7690    60.8481 H            1 3O0293   0.0000
    36 HAV         -5.0055    64.5901    62.2342 H            1 3O0293   0.0000
@<TRIPOS>BOND
     1    1   12       1
     2    2    8       1
     3    3    4      ar
     4    3   13      ar
     5    4    5      ar
     6    5    6       1
     7    5   15      ar
     8    6    7       1
     9    6   16       2
    10    7    8       2
    11    7   17       1
    12    8    9       1
    13    9   18       2
    14   10   11      ar
    15   10   20      ar
    16   11   12      ar
    17   12   22      ar
    18   13   14      ar
    19   14   15      ar
    20   14   24       1
    21   17   18       1
    22   18   19       1
    23   19   20       1
    24   20   21      ar
    25   21   22      ar
    26   23   24      ar
    27   24   25      ar
    28    2   26       1
    29    2   27       1
    30    3   28       1
    31    4   29       1
    32   10   30       1
    33   11   31       1
    34   13   32       1
    35   15   33       1
    36   19   34       1
    37   21   35       1
    38   22   36       1
@<TRIPOS>SUBSTRUCTURE
     1 3O0293      1 GROUP             4 B     3O0     0 **** 3O0 B 293
