@<TRIPOS>MOLECULE
3akn_11D_1_ligand
   63    64     1     0     0
SMALL
NO_CHARGES


@<TRIPOS>ATOM
     1 C1          23.2000   -20.3790     8.6810 C.ar         1 11D132   0.0000
     2 C2          23.6440   -19.0950     9.0310 C.ar         1 11D132   0.0000
     3 C3          22.6790   -17.9800     9.2350 C.ar         1 11D132   0.0000
     4 C4          21.2250   -18.2740     9.0470 C.ar         1 11D132   0.0000
     5 C5          20.8880   -19.5970     8.7240 C.ar         1 11D132   0.0000
     6 C6          21.8390   -20.5990     8.5380 C.ar         1 11D132   0.0000
     7 C7          25.0830   -18.7900     9.1850 C.ar         1 11D132   0.0000
     8 C8          25.4520   -17.5000     9.5580 C.ar         1 11D132   0.0000
     9 C9          24.5040   -16.4800     9.7510 C.ar         1 11D132   0.0000
    10 C10         23.1310   -16.7060     9.5850 C.ar         1 11D132   0.0000
    11 N11         26.1020   -19.7400     9.1130 N.pl3        1 11D132   0.0000
    12 C12         26.0460   -20.8440    10.0480 C.3          1 11D132   0.0000
    13 C13         27.3450   -19.5530     8.3710 C.3          1 11D132   0.0000
    14 S14         20.0800   -17.1490     9.2570 S.o2         1 11D132   0.0000
    15 O15         20.1700   -16.5470    10.5600 O.2          1 11D132   0.0000
    16 O16         18.8010   -17.7560     9.0120 O.2          1 11D132   0.0000
    17 N17         20.2190   -16.0120     8.1390 N.3          1 11D132   0.0000
    18 C18         19.9920   -16.3030     6.7310 C.3          1 11D132   0.0000
    19 C19         18.5310   -16.0770     6.3290 C.3          1 11D132   0.0000
    20 C20         18.3430   -16.3100     4.8410 C.3          1 11D132   0.0000
    21 C21         16.8660   -16.4630     4.4630 C.3          1 11D132   0.0000
    22 C22         16.7920   -16.6730     2.9450 C.3          1 11D132   0.0000
    23 C23         15.3730   -16.5630     2.3770 C.3          1 11D132   0.0000
    24 C24         15.1890   -17.4220     1.1170 C.3          1 11D132   0.0000
    25 C25         16.0460   -16.9610    -0.0610 C.3          1 11D132   0.0000
    26 C26         15.6700   -17.7330    -1.3240 C.3          1 11D132   0.0000
    27 C27         16.5500   -17.3890    -2.5230 C.3          1 11D132   0.0000
    28 C28         16.4380   -15.9490    -2.9730 C.2          1 11D132   0.0000
    29 O29         15.3390   -15.5480    -3.3840 O.co2        1 11D132   0.0000
    30 O30         17.4380   -15.1890    -2.9240 O.co2        1 11D132  -1.0000
    31 H1          23.8536   -21.1221     8.5373 H            1 11D132   0.0000
    32 H2          19.9213   -19.8319     8.6226 H            1 11D132   0.0000
    33 H3          21.5259   -21.5160     8.2908 H            1 11D132   0.0000
    34 H4          26.4210   -17.2929     9.6927 H            1 11D132   0.0000
    35 H5          24.8182   -15.5678    10.0141 H            1 11D132   0.0000
    36 H6          22.4788   -15.9594     9.7164 H            1 11D132   0.0000
    37 H7          26.8265   -21.4502     9.8951 H            1 11D132   0.0000
    38 H8          26.0764   -20.4908    10.9830 H            1 11D132   0.0000
    39 H9          25.1964   -21.3535     9.9117 H            1 11D132   0.0000
    40 H10         27.9167   -20.3678     8.4676 H            1 11D132   0.0000
    41 H11         27.1370   -19.4045     7.4042 H            1 11D132   0.0000
    42 H12         27.8329   -18.7587     8.7328 H            1 11D132   0.0000
    43 H13         19.5717   -15.2911     8.3867 H            1 11D132   0.0000
    44 H14         20.2315   -17.2579     6.5556 H            1 11D132   0.0000
    45 H15         20.5750   -15.7064     6.1795 H            1 11D132   0.0000
    46 H16         18.2713   -15.1369     6.5496 H            1 11D132   0.0000
    47 H17         17.9486   -16.7116     6.8370 H            1 11D132   0.0000
    48 H18         18.8303   -17.1437     4.5812 H            1 11D132   0.0000
    49 H19         18.7245   -15.5318     4.3421 H            1 11D132   0.0000
    50 H20         16.3621   -15.6376     4.7176 H            1 11D132   0.0000
    51 H21         16.4736   -17.2522     4.9355 H            1 11D132   0.0000
    52 H22         17.1467   -17.5840     2.7345 H            1 11D132   0.0000
    53 H23         17.3638   -15.9822     2.5024 H            1 11D132   0.0000
    54 H24         15.1912   -15.6073     2.1455 H            1 11D132   0.0000
    55 H25         14.7223   -16.8671     3.0728 H            1 11D132   0.0000
    56 H26         14.2277   -17.3831     0.8442 H            1 11D132   0.0000
    57 H27         15.4349   -18.3658     1.3379 H            1 11D132   0.0000
    58 H28         17.0102   -17.1223     0.1494 H            1 11D132   0.0000
    59 H29         15.8972   -15.9842    -0.2149 H            1 11D132   0.0000
    60 H30         14.7205   -17.5210    -1.5553 H            1 11D132   0.0000
    61 H31         15.7569   -18.7114    -1.1362 H            1 11D132   0.0000
    62 H32         16.2865   -17.9788    -3.2864 H            1 11D132   0.0000
    63 H33         17.5023   -17.5686    -2.2763 H            1 11D132   0.0000
@<TRIPOS>BOND
     1    1    2      ar
     2    1    6      ar
     3    2    3      ar
     4    2    7      ar
     5    3    4      ar
     6    3   10      ar
     7    4    5      ar
     8    4   14       1
     9    5    6      ar
    10    7    8      ar
    11    7   11       1
    12    8    9      ar
    13    9   10      ar
    14   11   12       1
    15   11   13       1
    16   14   15       2
    17   14   16       2
    18   14   17       1
    19   17   18       1
    20   18   19       1
    21   19   20       1
    22   20   21       1
    23   21   22       1
    24   22   23       1
    25   23   24       1
    26   24   25       1
    27   25   26       1
    28   26   27       1
    29   27   28       1
    30   28   29      ar
    31   28   30      ar
    32    1   31       1
    33    5   32       1
    34    6   33       1
    35    8   34       1
    36    9   35       1
    37   10   36       1
    38   12   37       1
    39   12   38       1
    40   12   39       1
    41   13   40       1
    42   13   41       1
    43   13   42       1
    44   17   43       1
    45   18   44       1
    46   18   45       1
    47   19   46       1
    48   19   47       1
    49   20   48       1
    50   20   49       1
    51   21   50       1
    52   21   51       1
    53   22   52       1
    54   22   53       1
    55   23   54       1
    56   23   55       1
    57   24   56       1
    58   24   57       1
    59   25   58       1
    60   25   59       1
    61   26   60       1
    62   26   61       1
    63   27   62       1
    64   27   63       1
@<TRIPOS>SUBSTRUCTURE
     1 11D132      1 GROUP             4 A     11D     0 **** 11D A 132
