@<TRIPOS>MOLECULE
3oum_TOF_1_ligand
   21    22     1     0     0
SMALL
NO_CHARGES


@<TRIPOS>ATOM
     1 C1        -203.2620   126.6980    22.4090 C.2          1 TOF234   0.0000
     2 O1        -203.5160   125.4910    22.3840 O.2          1 TOF234   0.0000
     3 C2        -204.3020   127.7220    22.0480 C.2          1 TOF234   0.0000
     4 O2        -200.5940   129.0290    23.1550 O.2          1 TOF234   0.0000
     5 N3        -205.5040   127.3280    21.6900 N.2          1 TOF234   0.0000
     6 C4        -206.4620   128.3100    21.3570 C.2          1 TOF234   0.0000
     7 N5        -206.2660   129.6050    21.3700 N.2          1 TOF234   0.0000
     8 N6        -204.9800   130.0280    21.7480 N.pl3        1 TOF234   0.0000
     9 C7        -203.9300   129.1710    22.1060 C.2          1 TOF234   0.0000
    10 N8        -202.6940   129.5250    22.4790 N.2          1 TOF234   0.0000
    11 C9        -201.7050   128.6070    22.8200 C.2          1 TOF234   0.0000
    12 N10       -201.9970   127.2140    22.7910 N.pl3        1 TOF234   0.0000
    13 C11       -204.7090   131.4870    21.7800 C.3          1 TOF234   0.0000
    14 C12       -200.9380   126.2470    23.1560 C.3          1 TOF234   0.0000
    15 H1        -207.3699   127.9887    21.0876 H            1 TOF234   0.0000
    16 H2        -203.7630   131.6442    22.0634 H            1 TOF234   0.0000
    17 H3        -204.8524   131.8727    20.8686 H            1 TOF234   0.0000
    18 H4        -205.3291   131.9270    22.4295 H            1 TOF234   0.0000
    19 H5        -200.1050   126.7422    23.4025 H            1 TOF234   0.0000
    20 H6        -201.2420   125.6978    23.9344 H            1 TOF234   0.0000
    21 H7        -200.7514   125.6475    22.3777 H            1 TOF234   0.0000
@<TRIPOS>BOND
     1    1    2       2
     2    1    3       1
     3    1   12       1
     4    3    5       2
     5    3    9       1
     6    4   11       2
     7    5    6       1
     8    6    7       2
     9    7    8       1
    10    8    9       1
    11    8   13       1
    12    9   10       2
    13   10   11       1
    14   11   12       1
    15   12   14       1
    16    6   15       1
    17   13   16       1
    18   13   17       1
    19   13   18       1
    20   14   19       1
    21   14   20       1
    22   14   21       1
@<TRIPOS>SUBSTRUCTURE
     1 TOF234      1 GROUP             4 A     TOF     0 **** TOF A 234
