@<TRIPOS>MOLECULE
3zgl_10E_1_ligand
   25    24     1     0     0
SMALL
NO_CHARGES


@<TRIPOS>ATOM
     1 O13         37.0380     2.4700    28.1910 O.co2        1 10E1311   0.0000
     2 P12         36.7810     1.7080    27.0680 P.3          1 10E1311   0.0000
     3 O14         35.3940     1.8840    26.4800 O.co2        1 10E1311  -1.0000
     4 O15         37.7690     1.7250    26.1450 O.co2        1 10E1311  -1.0000
     5 O11         36.7250     0.2330    27.6710 O.3          1 10E1311   0.0000
     6 P8          37.1250    -1.1840    27.1360 P.3          1 10E1311   0.0000
     7 O9          36.6500    -2.1360    28.0620 O.co2        1 10E1311   0.0000
     8 O10         36.7520    -1.3950    25.8240 O.co2        1 10E1311  -1.0000
     9 O7          38.7470    -1.2650    27.0690 O.3          1 10E1311   0.0000
    10 C6          39.5290    -1.2920    28.2620 C.3          1 10E1311   0.0000
    11 C5          39.5310     0.0680    28.7820 C.2          1 10E1311   0.0000
    12 C3          39.1280     0.5250    30.1560 C.2          1 10E1311   0.0000
    13 C4          38.7430    -0.4570    31.2630 C.3          1 10E1311   0.0000
    14 C1          39.2190     2.0140    30.3770 C.3          1 10E1311   0.0000
    15 N2          40.4820     2.1750    31.1600 N.3          1 10E1311   0.0000
    16 H1          40.4628    -1.5854    28.0571 H            1 10E1311   0.0000
    17 H2          39.1220    -1.9166    28.9284 H            1 10E1311   0.0000
    18 H3          39.8362     0.7814    28.1512 H            1 10E1311   0.0000
    19 H4          38.5100     0.0505    32.0926 H            1 10E1311   0.0000
    20 H5          37.9540    -0.9970    30.9700 H            1 10E1311   0.0000
    21 H6          39.5132    -1.0667    31.4504 H            1 10E1311   0.0000
    22 H7          38.4319     2.3469    30.8962 H            1 10E1311   0.0000
    23 H8          39.2741     2.5018    29.5058 H            1 10E1311   0.0000
    24 H9          40.8913     3.0637    30.9533 H            1 10E1311   0.0000
    25 H10         40.2774     2.1215    32.1374 H            1 10E1311   0.0000
@<TRIPOS>BOND
     1    1    2      ar
     2    2    3      ar
     3    2    4      ar
     4    2    5       1
     5    5    6       1
     6    6    7      ar
     7    6    8      ar
     8    6    9       1
     9    9   10       1
    10   10   11       1
    11   11   12       2
    12   12   13       1
    13   12   14       1
    14   14   15       1
    15   15   24       1
    16   15   25       1
    17   14   23       1
    18   10   16       1
    19   10   17       1
    20   11   18       1
    21   13   19       1
    22   13   20       1
    23   13   21       1
    24   14   22       1
@<TRIPOS>SUBSTRUCTURE
     1 10E1311     1 GROUP             4 A     10E     0 **** 10E A1311
