@<TRIPOS>MOLECULE
./coach420/1cen/ligand.pdb
 23 24 0 0 0
SMALL
GASTEIGER

@<TRIPOS>ATOM
      1  C2        51.4560   22.9480   58.7550 C.3   350  BGC350      0.2406
      2  C3        52.0750   21.5970   58.3360 C.3   350  BGC350      0.2198
      3  C4        51.3480   20.3780   59.0790 C.3   350  BGC350      0.2144
      4  C5        49.8430   20.4240   58.6960 C.3   350  BGC350      0.1835
      5  C6        48.9760   19.2810   59.2530 C.3   350  BGC350      0.2142
      6  C1        49.9490   22.8740   58.5740 C.3   350  BGC350      0.2695
      7  O2        51.9630   24.0080   57.9730 O.3   350  BGC350     -0.2149
      8  O3        53.4640   21.6130   58.6340 O.3   350  BGC350     -0.2174
      9  O4        51.9060   19.0900   58.7900 O.3   350  BGC350     -0.2176
     10  O5        49.3270   21.6970   59.1600 O.3   350  BGC350     -0.3256
     11  O6        49.2100   19.1070   60.6490 O.3   350  BGC350     -0.2176
     12  C2        45.7510   24.8280   59.6180 C.3   351  BGC351      0.2433
     13  C3        47.2340   25.0270   59.9710 C.3   351  BGC351      0.2168
     14  C4        47.9990   24.3130   58.8230 C.3   351  BGC351      0.1804
     15  C5        47.8090   25.1940   57.5580 C.3   351  BGC351      0.1804
     16  C6        48.7470   24.9740   56.3880 C.3   351  BGC351      0.2141
     17  C1        45.4060   25.2880   58.0900 C.3   351  BGC351      0.3023
     18  O1        44.2170   24.6730   57.5820 O.3   351  BGC351     -0.1869
     19  O2        45.0340   25.4670   60.7010 O.3   351  BGC351     -0.2148
     20  O3        47.4730   24.5260   61.2780 O.3   351  BGC351     -0.2175
     21  O4        49.3810   24.0830   59.1240 O.3   351  BGC351     -0.3257
     22  O5        46.4550   24.9800   57.1250 O.3   351  BGC351     -0.3237
     23  O6        48.4130   23.7460   55.7660 O.3   351  BGC351     -0.2176
@<TRIPOS>BOND
     1     1     7    1
     2     1     2    1
     3     1     6    1
     4     2     8    1
     5     2     3    1
     6     3     4    1
     7     3     9    1
     8     4    10    1
     9     4     5    1
    10     5    11    1
    11     6    21    1
    12     6    10    1
    13    12    17    1
    14    12    13    1
    15    12    19    1
    16    13    14    1
    17    13    20    1
    18    14    15    1
    19    14    21    1
    20    15    16    1
    21    15    22    1
    22    16    23    1
    23    17    22    1
    24    17    18    1
