@<TRIPOS>MOLECULE
3o3n_IRC_1_ligand
   98   100     1     0     0
SMALL
NO_CHARGES


@<TRIPOS>ATOM
     1 N1A         60.9430     0.0580    -1.9820 N.ar         1 IRC410   0.0000
     2 O1A         52.5580     7.1670    -2.6780 O.co2        1 IRC410   0.0000
     3 P1A         53.5810     7.2870    -1.5920 P.3          1 IRC410   0.0000
     4 C1B         58.4880     4.8630    -1.9900 C.3          1 IRC410   0.0000
     5 S1P         40.3480    13.2380     5.7940 S.3          1 IRC410   0.0000
     6 C2A         61.2000     1.2280    -2.6980 C.ar         1 IRC410   0.0000
     7 O2A         54.5150     8.4060    -1.9020 O.co2        1 IRC410  -1.0000
     8 P2A         53.1950     8.8820     0.6080 P.3          1 IRC410   0.0000
     9 C2B         58.4980     4.9590    -3.5660 C.3          1 IRC410   0.0000
    10 O2B         59.7760     5.3250    -3.9980 O.3          1 IRC410   0.0000
    11 C2P         41.7480    12.1900     5.5700 C.3          1 IRC410   0.0000
    12 N3A         60.5410     2.4310    -2.6610 N.ar         1 IRC410   0.0000
    13 O3A         52.8000     7.4810    -0.1150 O.3          1 IRC410   0.0000
    14 C3B         57.3210     5.9620    -3.9130 C.3          1 IRC410   0.0000
    15 O3B         57.7560     7.1780    -4.4730 O.3          1 IRC410   0.0000
    16 P3B         58.4680     8.4170    -3.4390 P.3          1 IRC410   0.0000
    17 C3P         42.9860    13.0950     5.6160 C.3          1 IRC410   0.0000
    18 C4A         59.4500     2.4620    -1.7630 C.ar         1 IRC410   0.0000
    19 O4A         54.4780     8.8310     1.3700 O.co2        1 IRC410   0.0000
    20 C4B         56.5520     6.1480    -2.5700 C.3          1 IRC410   0.0000
    21 O4B         57.3190     5.5410    -1.5000 O.3          1 IRC410   0.0000
    22 N4P         43.8000    12.5760     4.5560 N.am         1 IRC410   0.0000
    23 C5A         59.0600     1.2810    -0.9280 C.ar         1 IRC410   0.0000
    24 O5A         53.2380    10.0120    -0.3820 O.co2        1 IRC410  -1.0000
    25 C5B         55.1410     5.5290    -2.6310 C.3          1 IRC410   0.0000
    26 O5B         54.3920     5.8380    -1.4710 O.3          1 IRC410   0.0000
    27 C5P         45.1320    12.5610     4.2520 C.2          1 IRC410   0.0000
    28 O5P         46.2160    12.9300     4.7740 O.2          1 IRC410   0.0000
    29 C6A         59.8600     0.0770    -1.0810 C.ar         1 IRC410   0.0000
    30 N6A         59.5410    -1.0670    -0.3230 N.pl3        1 IRC410   0.0000
    31 O6A         51.9290     9.1890     1.7110 O.3          1 IRC410   0.0000
    32 C6P         45.8190    12.0250     3.0090 C.3          1 IRC410   0.0000
    33 N7A         57.9560     1.6030    -0.1410 N.2          1 IRC410   0.0000
    34 O7A         59.8320     8.9370    -3.7270 O.co2        1 IRC410   0.0000
    35 C7P         46.0600    12.0250     1.5020 C.3          1 IRC410   0.0000
    36 C8A         57.6600     2.8890    -0.4520 C.2          1 IRC410   0.0000
    37 O8A         57.4450     9.2210    -2.6300 O.co2        1 IRC410  -1.0000
    38 N8P         46.2900    10.6960     0.9600 N.am         1 IRC410   0.0000
    39 N9A         58.5240     3.4710    -1.4270 N.pl3        1 IRC410   0.0000
    40 O9A         58.0000     9.0870    -4.7160 O.co2        1 IRC410  -1.0000
    41 C9P         47.1980    10.3830    -0.0610 C.2          1 IRC410   0.0000
    42 O9P         46.7760     9.9030    -1.1430 O.2          1 IRC410   0.0000
    43 CAP         48.7300    10.6280     0.1850 C.3          1 IRC410   0.0000
    44 OAP         49.1400    11.2200    -1.0430 O.3          1 IRC410   0.0000
    45 CBP         49.5670     9.4050     0.7120 C.3          1 IRC410   0.0000
    46 CCP         50.9520    10.0070     1.1290 C.3          1 IRC410   0.0000
    47 CDP         49.7070     8.3230    -0.3620 C.3          1 IRC410   0.0000
    48 CEP         48.9620     8.8310     1.9740 C.3          1 IRC410   0.0000
    49 CI1         39.3710    13.0540     7.2300 C.2          1 IRC410   0.0000
    50 OI1         39.6240    12.1770     8.0700 O.2          1 IRC410   0.0000
    51 CI2         38.1880    13.9870     7.4620 C.3          1 IRC410   0.0000
    52 OI2         37.2540    13.9420     6.4240 O.3          1 IRC410   0.0000
    53 CI3         38.4510    15.4280     7.8930 C.3          1 IRC410   0.0000
    54 CI4         39.3140    16.3030     7.0090 C.3          1 IRC410   0.0000
    55 CI5         38.5500    17.5240     6.5760 C.3          1 IRC410   0.0000
    56 CI6         40.4200    16.7340     7.9280 C.3          1 IRC410   0.0000
    57 H1B         59.2908     5.3519    -1.6487 H            1 IRC410   0.0000
    58 H2A         61.9752     1.1833    -3.3281 H            1 IRC410   0.0000
    59 H2B         58.2762     4.0602    -3.9441 H            1 IRC410   0.0000
    60 H4          60.4382     4.6374    -3.7002 H            1 IRC410   0.0000
    61 H2P1        41.6931    11.7253     4.6862 H            1 IRC410   0.0000
    62 H2P2        41.7905    11.5100     6.3020 H            1 IRC410   0.0000
    63 H3B         56.7096     5.5156    -4.5664 H            1 IRC410   0.0000
    64 H3P1        43.4529    13.0218     6.4973 H            1 IRC410   0.0000
    65 H3P2        42.7406    14.0496     5.4471 H            1 IRC410   0.0000
    66 H4B         56.4640     7.1268    -2.3849 H            1 IRC410   0.0000
    67 H4P         43.2541    12.1053     3.8629 H            1 IRC410   0.0000
    68 H5B1        55.2245     4.5356    -2.7095 H            1 IRC410   0.0000
    69 H5B2        54.6626     5.8877    -3.4325 H            1 IRC410   0.0000
    70 H6A1        58.7708    -1.0457     0.3144 H            1 IRC410   0.0000
    71 H6A2        60.0848    -1.9003    -0.4224 H            1 IRC410   0.0000
    72 H6P1        45.5669    11.0628     3.1119 H            1 IRC410   0.0000
    73 H6P2        46.7658    12.1548     3.3036 H            1 IRC410   0.0000
    74 H7P1        46.8616    12.5906     1.3081 H            1 IRC410   0.0000
    75 H7P2        45.2581    12.4177     1.0517 H            1 IRC410   0.0000
    76 H8A         56.9006     3.3873    -0.0336 H            1 IRC410   0.0000
    77 H8P         45.7570     9.9436     1.3471 H            1 IRC410   0.0000
    78 HAP         48.7968    11.3416     0.8824 H            1 IRC410   0.0000
    79 H23         49.0434    12.2135    -0.9827 H            1 IRC410   0.0000
    80 HCP1        51.3576    10.3960     0.3018 H            1 IRC410   0.0000
    81 HCP2        50.7624    10.7391     1.7833 H            1 IRC410   0.0000
    82 HDP1        50.2423     7.5603     0.0010 H            1 IRC410   0.0000
    83 HDP2        48.7995     7.9970    -0.6270 H            1 IRC410   0.0000
    84 HDP3        50.1706     8.7049    -1.1615 H            1 IRC410   0.0000
    85 HEP1        49.5131     8.0570     2.2857 H            1 IRC410   0.0000
    86 HEP2        48.9432     9.5345     2.6845 H            1 IRC410   0.0000
    87 HEP3        48.0297     8.5221     1.7861 H            1 IRC410   0.0000
    88 HI2         37.7075    13.5831     8.2405 H            1 IRC410   0.0000
    89 H33         37.7195    13.7252     5.5659 H            1 IRC410   0.0000
    90 HI31        38.8903    15.3916     8.7906 H            1 IRC410   0.0000
    91 HI32        37.5618    15.8780     7.9751 H            1 IRC410   0.0000
    92 HI4         39.6675    15.7946     6.2238 H            1 IRC410   0.0000
    93 HI51        39.1315    18.0919     5.9935 H            1 IRC410   0.0000
    94 HI52        37.7373    17.2447     6.0646 H            1 IRC410   0.0000
    95 HI53        38.2732    18.0472     7.3820 H            1 IRC410   0.0000
    96 HI61        41.0546    17.3259     7.4311 H            1 IRC410   0.0000
    97 HI62        40.0337    17.2351     8.7024 H            1 IRC410   0.0000
    98 HI63        40.9084    15.9281     8.2627 H            1 IRC410   0.0000
@<TRIPOS>BOND
     1    1    6      ar
     2    1   29      ar
     3    2    3      ar
     4    3    7      ar
     5    3   13       1
     6    3   26       1
     7    4    9       1
     8    4   21       1
     9    4   39       1
    10    5   11       1
    11    5   49       1
    12    6   12      ar
    13    8   13       1
    14    8   19      ar
    15    8   24      ar
    16    8   31       1
    17    9   10       1
    18    9   14       1
    19   11   17       1
    20   12   18      ar
    21   14   15       1
    22   14   20       1
    23   15   16       1
    24   16   34      ar
    25   16   37      ar
    26   16   40      ar
    27   17   22       1
    28   18   23      ar
    29   18   39       1
    30   20   21       1
    31   20   25       1
    32   22   27      am
    33   23   29      ar
    34   23   33       1
    35   25   26       1
    36   27   28       2
    37   27   32       1
    38   29   30       1
    39   31   46       1
    40   32   35       1
    41   33   36       2
    42   35   38       1
    43   36   39       1
    44   38   41      am
    45   41   42       2
    46   41   43       1
    47   43   44       1
    48   43   45       1
    49   45   46       1
    50   45   47       1
    51   45   48       1
    52   49   50       2
    53   49   51       1
    54   51   52       1
    55   51   53       1
    56   53   54       1
    57   54   55       1
    58   54   56       1
    59   56   98       1
    60    4   57       1
    61    6   58       1
    62    9   59       1
    63   10   60       1
    64   11   61       1
    65   11   62       1
    66   14   63       1
    67   17   64       1
    68   17   65       1
    69   56   97       1
    70   20   66       1
    71   22   67       1
    72   25   68       1
    73   25   69       1
    74   30   70       1
    75   30   71       1
    76   32   72       1
    77   32   73       1
    78   56   96       1
    79   35   74       1
    80   35   75       1
    81   36   76       1
    82   55   95       1
    83   38   77       1
    84   43   78       1
    85   44   79       1
    86   46   80       1
    87   46   81       1
    88   47   82       1
    89   47   83       1
    90   47   84       1
    91   48   85       1
    92   48   86       1
    93   48   87       1
    94   51   88       1
    95   52   89       1
    96   53   90       1
    97   53   91       1
    98   54   92       1
    99   55   93       1
   100   55   94       1
@<TRIPOS>SUBSTRUCTURE
     1 IRC410      1 GROUP             4 A     IRC     0 **** IRC A 410
