@<TRIPOS>MOLECULE
2imf_TOM_1_ligand
   25    25     1     0     0
SMALL
NO_CHARGES


@<TRIPOS>ATOM
     1 O8          27.9320    36.3040    27.5010 O.2          1 TOM305   0.0000
     2 C9          27.4210    37.4120    27.6210 C.2          1 TOM305   0.0000
     3 C10         27.2760    38.3620    26.5480 C.2          1 TOM305   0.0000
     4 O11         28.3300    38.9560    26.2160 O.co2        1 TOM305  -1.0000
     5 O10         26.1430    38.6060    26.0850 O.co2        1 TOM305   0.0000
     6 C8          26.9600    37.9620    28.9350 C.3          1 TOM305   0.0000
     7 C7          27.0410    37.3520    30.0950 C.3          1 TOM305   0.0000
     8 C1          26.5040    35.9630    30.3760 C.ar         1 TOM305   0.0000
     9 C6          27.3310    35.1640    31.1400 C.ar         1 TOM305   0.0000
    10 C5          26.9420    33.8610    31.4330 C.ar         1 TOM305   0.0000
    11 C4          25.6800    33.4190    31.0000 C.ar         1 TOM305   0.0000
    12 C3          24.8390    34.2130    30.2490 C.ar         1 TOM305   0.0000
    13 C2          25.2770    35.5160    29.9490 C.ar         1 TOM305   0.0000
    14 O2          24.5230    36.3900    29.2440 O.3          1 TOM305   0.0000
    15 C11         23.1690    35.9570    29.0930 C.3          1 TOM305   0.0000
    16 H1          25.9880    38.1611    28.8101 H            1 TOM305   0.0000
    17 H2          27.4632    38.8181    29.0526 H            1 TOM305   0.0000
    18 H10         28.2020    35.5189    31.4798 H            1 TOM305   0.0000
    19 H9          27.5487    33.2504    31.9420 H            1 TOM305   0.0000
    20 H8          25.3816    32.4966    31.2451 H            1 TOM305   0.0000
    21 H7          23.9531    33.8761    29.9303 H            1 TOM305   0.0000
    22 H4          22.6584    36.6368    28.5666 H            1 TOM305   0.0000
    23 H5          23.1510    35.0806    28.6118 H            1 TOM305   0.0000
    24 H6          22.7505    35.8507    29.9950 H            1 TOM305   0.0000
    25 H3          28.0271    37.2108    30.1825 H            1 TOM305   0.0000
@<TRIPOS>BOND
     1    7   25       1
     2   15   24       1
     3    1    2       2
     4    2    3       1
     5    2    6       1
     6    3    4      ar
     7    3    5      ar
     8    6    7       1
     9    7    8       1
    10    8    9      ar
    11    8   13      ar
    12    9   10      ar
    13   10   11      ar
    14   11   12      ar
    15   12   13      ar
    16   13   14       1
    17   14   15       1
    18   12   21       1
    19    6   16       1
    20    6   17       1
    21   15   23       1
    22   15   22       1
    23    9   18       1
    24   10   19       1
    25   11   20       1
@<TRIPOS>SUBSTRUCTURE
     1 TOM305      1 GROUP             4 A     TOM     0 **** TOM A 305
