@<TRIPOS>MOLECULE
1piw_NAP_1_ligand
   73    77     1     0     0
SMALL
NO_CHARGES


@<TRIPOS>ATOM
     1 PA         176.6660    59.4750     2.3160 P.3          1 NAP4292   0.0000
     2 O1A        177.5040    59.2890     1.1860 O.co2        1 NAP4292   0.0000
     3 O2A        175.1370    59.5340     2.3190 O.co2        1 NAP4292  -1.0000
     4 O5B        177.1640    60.7880     3.0790 O.3          1 NAP4292   0.0000
     5 C5B        178.5590    60.8800     3.4750 C.3          1 NAP4292   0.0000
     6 C4B        178.4940    62.0190     4.5080 C.3          1 NAP4292   0.0000
     7 O4B        179.8780    62.2410     5.0490 O.3          1 NAP4292   0.0000
     8 C3B        178.1050    63.4240     3.9680 C.3          1 NAP4292   0.0000
     9 O3B        176.6840    63.5760     4.1100 O.3          1 NAP4292   0.0000
    10 C2B        178.9330    64.3620     4.8250 C.3          1 NAP4292   0.0000
    11 O2B        178.3710    64.6410     6.1020 O.3          1 NAP4292   0.0000
    12 C1B        180.2840    63.6100     4.9820 C.3          1 NAP4292   0.0000
    13 N9A        181.2140    64.0010     3.8850 N.pl3        1 NAP4292   0.0000
    14 C8A        181.1390    63.9210     2.5050 C.2          1 NAP4292   0.0000
    15 N7A        182.2020    64.4000     1.8670 N.2          1 NAP4292   0.0000
    16 C5A        183.0320    64.8250     2.8950 C.ar         1 NAP4292   0.0000
    17 C6A        184.3110    65.4290     2.8420 C.ar         1 NAP4292   0.0000
    18 N6A        185.0180    65.7310     1.7430 N.pl3        1 NAP4292   0.0000
    19 N1A        184.9230    65.7550     4.0580 N.ar         1 NAP4292   0.0000
    20 C2A        184.2820    65.4880     5.2760 C.ar         1 NAP4292   0.0000
    21 N3A        183.0220    64.8960     5.3650 N.ar         1 NAP4292   0.0000
    22 C4A        182.4320    64.5790     4.1440 C.ar         1 NAP4292   0.0000
    23 O3         176.9790    58.4020     3.4190 O.3          1 NAP4292   0.0000
    24 PN         177.4720    56.9200     3.3860 P.3          1 NAP4292   0.0000
    25 O1N        176.8210    56.1700     2.3080 O.co2        1 NAP4292   0.0000
    26 O2N        177.2650    56.4350     4.7570 O.co2        1 NAP4292  -1.0000
    27 O5D        178.9910    57.0830     3.0480 O.3          1 NAP4292   0.0000
    28 C5D        179.6690    55.9330     2.5340 C.3          1 NAP4292   0.0000
    29 C4D        181.0650    55.9530     3.0450 C.3          1 NAP4292   0.0000
    30 O4D        181.1860    54.8510     3.9770 O.3          1 NAP4292   0.0000
    31 C3D        182.0950    55.6870     1.9190 C.3          1 NAP4292   0.0000
    32 O3D        183.2840    56.4860     2.0650 O.3          1 NAP4292   0.0000
    33 C2D        182.3400    54.2000     2.0300 C.3          1 NAP4292   0.0000
    34 O2D        183.5960    53.8110     1.5350 O.3          1 NAP4292   0.0000
    35 C1D        182.2160    53.9300     3.4860 C.3          1 NAP4292   0.0000
    36 N1N        181.7320    52.5700     3.8440 N.ar         1 NAP4292   1.0000
    37 C2N        182.5710    51.6160     4.4740 C.ar         1 NAP4292   0.0000
    38 C3N        182.0450    50.3610     4.7720 C.ar         1 NAP4292   0.0000
    39 C7N        182.9410    49.3210     5.4530 C.2          1 NAP4292   0.0000
    40 O7N        182.4370    48.2500     5.6890 O.2          1 NAP4292   0.0000
    41 N7N        184.1810    49.5880     5.7590 N.am         1 NAP4292   0.0000
    42 C4N        180.6560    50.0220     4.4450 C.ar         1 NAP4292   0.0000
    43 C5N        179.8510    51.0080     3.8150 C.ar         1 NAP4292   0.0000
    44 C6N        180.3640    52.2930     3.5010 C.ar         1 NAP4292   0.0000
    45 P2B        178.4260    66.0820     6.8020 P.3          1 NAP4292   0.0000
    46 O1X        179.7810    66.1570     7.4790 O.co2        1 NAP4292   0.0000
    47 O2X        178.2980    66.9870     5.6350 O.co2        1 NAP4292  -1.0000
    48 O3X        177.3070    66.0820     7.7930 O.co2        1 NAP4292  -1.0000
    49 H5B1       179.1458    61.1186     2.7012 H            1 NAP4292   0.0000
    50 H5B2       178.8811    60.0278     3.8873 H            1 NAP4292   0.0000
    51 H4B        177.8785    61.7627     5.2533 H            1 NAP4292   0.0000
    52 H3B        178.3679    63.5104     3.0071 H            1 NAP4292   0.0000
    53 H5         176.2734    63.7267     3.2107 H            1 NAP4292   0.0000
    54 H2B        179.0834    65.2190     4.3322 H            1 NAP4292   0.0000
    55 H1B        180.6942    63.8663     5.8572 H            1 NAP4292   0.0000
    56 H8A        180.3499    63.5346     2.0275 H            1 NAP4292   0.0000
    57 H6A1       185.9175    66.1594     1.8292 H            1 NAP4292   0.0000
    58 H6A2       184.6457    65.5277     0.8374 H            1 NAP4292   0.0000
    59 H2A        184.7517    65.7344     6.1237 H            1 NAP4292   0.0000
    60 H5D1       179.6735    55.9608     1.5344 H            1 NAP4292   0.0000
    61 H5D2       179.2071    55.1013     2.8422 H            1 NAP4292   0.0000
    62 H4D        181.2596    56.8215     3.5009 H            1 NAP4292   0.0000
    63 H3D        181.6729    55.8851     1.0344 H            1 NAP4292   0.0000
    64 H16        183.6725    56.6735     1.1628 H            1 NAP4292   0.0000
    65 H2D        181.6220    53.7073     1.5384 H            1 NAP4292   0.0000
    66 H18        184.0865    54.6159     1.2010 H            1 NAP4292   0.0000
    67 H1D        183.0859    54.1147     3.9433 H            1 NAP4292   0.0000
    68 H2N        183.5193    51.8393     4.6994 H            1 NAP4292   0.0000
    69 H7N1       184.7471    48.8935     6.2032 H            1 NAP4292   0.0000
    70 H7N2       184.5653    50.4871     5.5493 H            1 NAP4292   0.0000
    71 H4N        180.2849    49.1187     4.6604 H            1 NAP4292   0.0000
    72 H5N        178.9015    50.7917     3.5877 H            1 NAP4292   0.0000
    73 H6N        179.7929    52.9828     3.0560 H            1 NAP4292   0.0000
@<TRIPOS>BOND
     1    1    2      ar
     2    1    3      ar
     3    1    4       1
     4    1   23       1
     5    4    5       1
     6    5    6       1
     7    6    7       1
     8    6    8       1
     9    7   12       1
    10    8    9       1
    11    8   10       1
    12   10   11       1
    13   10   12       1
    14   11   45       1
    15   12   13       1
    16   13   14       1
    17   13   22       1
    18   14   15       2
    19   15   16       1
    20   16   17      ar
    21   16   22      ar
    22   17   18       1
    23   17   19      ar
    24   19   20      ar
    25   20   21      ar
    26   21   22      ar
    27   23   24       1
    28   24   25      ar
    29   24   26      ar
    30   24   27       1
    31   27   28       1
    32   28   29       1
    33   29   30       1
    34   29   31       1
    35   30   35       1
    36   31   32       1
    37   31   33       1
    38   33   34       1
    39   33   35       1
    40   35   36       1
    41   36   37      ar
    42   36   44      ar
    43   37   38      ar
    44   38   39       1
    45   38   42      ar
    46   39   40       2
    47   39   41      am
    48   42   43      ar
    49   43   44      ar
    50   45   46      ar
    51   45   47      ar
    52   45   48      ar
    53   43   72       1
    54    5   49       1
    55    5   50       1
    56    6   51       1
    57    8   52       1
    58    9   53       1
    59   10   54       1
    60   12   55       1
    61   14   56       1
    62   18   57       1
    63   18   58       1
    64   20   59       1
    65   44   73       1
    66   28   60       1
    67   28   61       1
    68   29   62       1
    69   31   63       1
    70   32   64       1
    71   33   65       1
    72   34   66       1
    73   35   67       1
    74   37   68       1
    75   41   69       1
    76   41   70       1
    77   42   71       1
@<TRIPOS>SUBSTRUCTURE
     1 NAP4292     1 GROUP             4 A     NAP     0 **** NAP A4292
