@<TRIPOS>MOLECULE
1o0s_NAI_2_ligand
   71    75     1     0     0
SMALL
NO_CHARGES


@<TRIPOS>ATOM
     1 PA          -7.9860    62.3630    67.7400 P.3          1 NAI930   0.0000
     2 O1A         -8.2970    63.3500    66.5270 O.co2        1 NAI930   0.0000
     3 O2A         -6.9980    61.2110    67.2200 O.co2        1 NAI930  -1.0000
     4 O5B         -9.3500    61.7110    68.2890 O.3          1 NAI930   0.0000
     5 C5B        -10.5940    62.4260    68.4590 C.3          1 NAI930   0.0000
     6 C4B        -11.7640    61.4300    68.3770 C.3          1 NAI930   0.0000
     7 O4B        -12.9470    61.9970    68.9890 O.3          1 NAI930   0.0000
     8 C3B        -12.1760    61.0290    66.9380 C.3          1 NAI930   0.0000
     9 O3B        -12.5080    59.6340    66.8750 O.3          1 NAI930   0.0000
    10 C2B        -13.3680    61.9320    66.6780 C.3          1 NAI930   0.0000
    11 O2B        -14.1870    61.4250    65.6290 O.3          1 NAI930   0.0000
    12 C1B        -14.0310    61.9440    68.0390 C.3          1 NAI930   0.0000
    13 N9A        -14.9220    63.1190    68.2100 N.pl3        1 NAI930   0.0000
    14 C8A        -14.8100    64.4770    67.9200 C.2          1 NAI930   0.0000
    15 N7A        -15.7870    65.3890    68.1510 N.2          1 NAI930   0.0000
    16 C5A        -16.7750    64.4990    68.7120 C.ar         1 NAI930   0.0000
    17 C6A        -18.1530    64.6620    69.1900 C.ar         1 NAI930   0.0000
    18 N6A        -18.7880    65.7890    69.2660 N.pl3        1 NAI930   0.0000
    19 N1A        -18.8570    63.5960    69.6840 N.ar         1 NAI930   0.0000
    20 C2A        -18.3450    62.3000    69.6780 C.ar         1 NAI930   0.0000
    21 N3A        -17.0930    61.9180    69.2750 N.ar         1 NAI930   0.0000
    22 C4A        -16.2420    63.0850    68.7010 C.ar         1 NAI930   0.0000
    23 O3          -7.3290    63.1910    68.8800 O.3          1 NAI930   0.0000
    24 PN          -6.5810    62.3730    69.9740 P.3          1 NAI930   0.0000
    25 O1N         -5.0170    62.3430    69.6190 O.co2        1 NAI930   0.0000
    26 O2N         -7.1310    60.8840    70.0830 O.co2        1 NAI930  -1.0000
    27 O5D         -6.8050    63.1000    71.3690 O.3          1 NAI930   0.0000
    28 C5D         -8.1000    63.2880    71.9740 C.3          1 NAI930   0.0000
    29 C4D         -7.9390    63.9380    73.3470 C.3          1 NAI930   0.0000
    30 O4D         -7.0710    63.1280    74.1900 O.3          1 NAI930   0.0000
    31 C3D         -7.3060    65.3500    73.3170 C.3          1 NAI930   0.0000
    32 O3D         -8.0770    66.3090    74.0260 O.3          1 NAI930   0.0000
    33 C2D         -5.9280    65.1280    73.9060 C.3          1 NAI930   0.0000
    34 O2D         -5.4100    66.3280    74.4860 O.3          1 NAI930   0.0000
    35 C1D         -6.2010    64.0080    74.9110 C.3          1 NAI930   0.0000
    36 N1N         -4.9260    63.2980    75.3720 N.pl3        1 NAI930   0.0000
    37 C2N         -3.8350    63.2010    74.5630 C.2          1 NAI930   0.0000
    38 C3N         -2.6320    62.5590    74.9650 C.2          1 NAI930   0.0000
    39 C7N         -1.4020    62.4380    74.0920 C.2          1 NAI930   0.0000
    40 O7N         -1.4210    62.6090    72.8730 O.2          1 NAI930   0.0000
    41 N7N         -0.2100    62.1450    74.5930 N.am         1 NAI930   0.0000
    42 C4N         -2.6130    62.0030    76.2880 C.3          1 NAI930   0.0000
    43 C5N         -3.7460    62.1010    77.1280 C.2          1 NAI930   0.0000
    44 C6N         -4.8970    62.7670    76.6300 C.2          1 NAI930   0.0000
    45 H5B1       -10.6871    63.1118    67.7372 H            1 NAI930   0.0000
    46 H5B2       -10.6011    62.8779    69.3511 H            1 NAI930   0.0000
    47 H4B        -11.5125    60.6020    68.8782 H            1 NAI930   0.0000
    48 H3B        -11.4379    61.2378    66.2964 H            1 NAI930   0.0000
    49 H5         -11.6868    59.1053    66.6602 H            1 NAI930   0.0000
    50 H2B        -13.0521    62.8522    66.4468 H            1 NAI930   0.0000
    51 H7         -13.7963    60.5716    65.2839 H            1 NAI930   0.0000
    52 H1B        -14.5536    61.1013    68.1684 H            1 NAI930   0.0000
    53 H8A        -13.9544    64.8001    67.5156 H            1 NAI930   0.0000
    54 H6A1       -19.7287    65.8110    69.6045 H            1 NAI930   0.0000
    55 H6A2       -18.3373    66.6367    68.9861 H            1 NAI930   0.0000
    56 H2A        -18.9536    61.5751    70.0008 H            1 NAI930   0.0000
    57 H5D1        -8.5504    62.4011    72.0771 H            1 NAI930   0.0000
    58 H5D2        -8.6568    63.8787    71.3901 H            1 NAI930   0.0000
    59 H4D         -8.8385    63.9996    73.7795 H            1 NAI930   0.0000
    60 H3D         -7.2112    65.6453    72.3663 H            1 NAI930   0.0000
    61 H17         -8.3570    67.0387    73.4022 H            1 NAI930   0.0000
    62 H2D         -5.3055    64.8001    73.1954 H            1 NAI930   0.0000
    63 H19         -4.8988    66.8387    73.7947 H            1 NAI930   0.0000
    64 H1D         -6.6830    64.3798    75.7044 H            1 NAI930   0.0000
    65 H2N         -3.8820    63.5985    73.6466 H            1 NAI930   0.0000
    66 H7N1         0.5827    62.0726    73.9877 H            1 NAI930   0.0000
    67 H7N2        -0.1036    61.9964    75.5762 H            1 NAI930   0.0000
    68 H4N1        -1.8586    62.4454    76.7730 H            1 NAI930   0.0000
    69 H4N2        -2.4170    61.0278    76.1853 H            1 NAI930   0.0000
    70 H5N         -3.7370    61.7114    78.0489 H            1 NAI930   0.0000
    71 H6N         -5.7048    62.8491    77.2137 H            1 NAI930   0.0000
@<TRIPOS>BOND
     1    1    2      ar
     2    1    3      ar
     3    1    4       1
     4    1   23       1
     5    4    5       1
     6    5    6       1
     7    6    7       1
     8    6    8       1
     9    7   12       1
    10    8    9       1
    11    8   10       1
    12   10   11       1
    13   10   12       1
    14   12   13       1
    15   13   14       1
    16   13   22       1
    17   14   15       2
    18   15   16       1
    19   16   17      ar
    20   16   22      ar
    21   17   18       1
    22   17   19      ar
    23   19   20      ar
    24   20   21      ar
    25   21   22      ar
    26   23   24       1
    27   24   25      ar
    28   24   26      ar
    29   24   27       1
    30   27   28       1
    31   28   29       1
    32   29   30       1
    33   29   31       1
    34   30   35       1
    35   31   32       1
    36   31   33       1
    37   33   34       1
    38   33   35       1
    39   35   36       1
    40   36   37       1
    41   36   44       1
    42   37   38       2
    43   38   39       1
    44   38   42       1
    45   39   40       2
    46   39   41      am
    47   42   43       1
    48   43   44       2
    49   44   71       1
    50    5   45       1
    51    5   46       1
    52    6   47       1
    53    8   48       1
    54    9   49       1
    55   10   50       1
    56   11   51       1
    57   12   52       1
    58   14   53       1
    59   18   54       1
    60   18   55       1
    61   20   56       1
    62   43   70       1
    63   28   57       1
    64   28   58       1
    65   29   59       1
    66   31   60       1
    67   32   61       1
    68   33   62       1
    69   34   63       1
    70   35   64       1
    71   37   65       1
    72   41   66       1
    73   41   67       1
    74   42   68       1
    75   42   69       1
@<TRIPOS>SUBSTRUCTURE
     1 NAI930      1 GROUP             4 B     NAI     0 **** NAI B 930
