@<TRIPOS>MOLECULE
4r81_FMN_1_ligand
   50    52     1     0     0
SMALL
NO_CHARGES


@<TRIPOS>ATOM
     1 N1           9.0870    59.6890    31.6910 N.2          1 FMN300   0.0000
     2 C2           8.3230    59.0290    32.6340 C.2          1 FMN300   0.0000
     3 O2           8.5790    59.1610    33.8240 O.2          1 FMN300   0.0000
     4 N3           7.2760    58.2160    32.2470 N.pl3        1 FMN300   0.0000
     5 C4           6.9820    58.0550    30.9100 C.2          1 FMN300   0.0000
     6 O4           6.0530    57.3200    30.5890 O.2          1 FMN300   0.0000
     7 C4A          7.7410    58.7170    29.9470 C.2          1 FMN300   0.0000
     8 N5           7.4580    58.5860    28.6020 N.2          1 FMN300   0.0000
     9 C5A          8.2330    59.2360    27.6630 C.ar         1 FMN300   0.0000
    10 C6           7.9520    59.0840    26.3050 C.ar         1 FMN300   0.0000
    11 C7           8.7200    59.7420    25.3480 C.ar         1 FMN300   0.0000
    12 C7M          8.4300    59.5630    23.8870 C.3          1 FMN300   0.0000
    13 C8           9.7790    60.5570    25.7490 C.ar         1 FMN300   0.0000
    14 C8M         10.6140    61.2790    24.7270 C.3          1 FMN300   0.0000
    15 C9          10.0470    60.7120    27.1070 C.ar         1 FMN300   0.0000
    16 C9A          9.2830    60.0530    28.0690 C.ar         1 FMN300   0.0000
    17 N10          9.5510    60.2000    29.4200 N.pl3        1 FMN300   0.0000
    18 C10          8.7930    59.5330    30.3520 C.2          1 FMN300   0.0000
    19 C1'         10.6940    61.0420    29.8880 C.3          1 FMN300   0.0000
    20 C2'         11.9460    60.1910    29.6300 C.3          1 FMN300   0.0000
    21 O2'         11.9950    59.0420    30.4530 O.3          1 FMN300   0.0000
    22 C3'         13.2060    61.0350    29.7280 C.3          1 FMN300   0.0000
    23 O3'         13.2140    61.8780    28.5870 O.3          1 FMN300   0.0000
    24 C4'         14.4520    60.1580    29.7240 C.3          1 FMN300   0.0000
    25 O4'         14.5530    59.3870    30.9020 O.3          1 FMN300   0.0000
    26 C5'         15.7200    60.9830    29.5730 C.3          1 FMN300   0.0000
    27 O5'         16.7550    60.0730    29.2840 O.3          1 FMN300   0.0000
    28 P           17.4420    60.1270    27.8350 P.3          1 FMN300   0.0000
    29 O1P         18.1750    61.4520    27.7310 O.co2        1 FMN300   0.0000
    30 O2P         18.4200    58.9870    27.6960 O.co2        1 FMN300  -1.0000
    31 O3P         16.3590    60.0700    26.7850 O.co2        1 FMN300  -1.0000
    32 H1           6.7298    57.7430    32.9383 H            1 FMN300   0.0000
    33 H2           7.1941    58.4987    26.0170 H            1 FMN300   0.0000
    34 H7M1         9.0756    60.1060    23.3500 H            1 FMN300   0.0000
    35 H7M2         8.5239    58.5974    23.6444 H            1 FMN300   0.0000
    36 H7M3         7.4971    59.8663    23.6927 H            1 FMN300   0.0000
    37 H8M1        11.3216    61.8119    25.1910 H            1 FMN300   0.0000
    38 H8M2        11.0441    60.6131    24.1174 H            1 FMN300   0.0000
    39 H8M3        10.0313    61.8919    24.1933 H            1 FMN300   0.0000
    40 H9          10.7986    61.3048    27.3962 H            1 FMN300   0.0000
    41 H1'1        10.6033    61.2475    30.8624 H            1 FMN300   0.0000
    42 H1'2        10.7367    61.8962    29.3698 H            1 FMN300   0.0000
    43 H2'         11.8868    59.8681    28.6854 H            1 FMN300   0.0000
    44 H13         11.5386    58.2815    29.9912 H            1 FMN300   0.0000
    45 H3'         13.1815    61.5885    30.5605 H            1 FMN300   0.0000
    46 H15         13.6819    62.7337    28.8080 H            1 FMN300   0.0000
    47 H4'         14.3915    59.5329    28.9458 H            1 FMN300   0.0000
    48 H17         13.7517    58.7941    30.9821 H            1 FMN300   0.0000
    49 H5'1        15.9172    61.4725    30.4224 H            1 FMN300   0.0000
    50 H5'2        15.6183    61.6397    28.8257 H            1 FMN300   0.0000
@<TRIPOS>BOND
     1    1    2       1
     2    1   18       2
     3    2    3       2
     4    2    4       1
     5    4    5       1
     6    5    6       2
     7    5    7       1
     8    7    8       2
     9    7   18       1
    10    8    9       1
    11    9   10      ar
    12    9   16      ar
    13   10   11      ar
    14   11   12       1
    15   11   13      ar
    16   13   14       1
    17   13   15      ar
    18   15   16      ar
    19   16   17       1
    20   17   18       1
    21   17   19       1
    22   19   20       1
    23   20   21       1
    24   20   22       1
    25   22   23       1
    26   22   24       1
    27   24   25       1
    28   24   26       1
    29   26   27       1
    30   27   28       1
    31   28   29      ar
    32   28   30      ar
    33   28   31      ar
    34    4   32       1
    35   10   33       1
    36   12   34       1
    37   12   35       1
    38   12   36       1
    39   14   37       1
    40   14   38       1
    41   14   39       1
    42   15   40       1
    43   19   41       1
    44   19   42       1
    45   20   43       1
    46   21   44       1
    47   22   45       1
    48   23   46       1
    49   24   47       1
    50   25   48       1
    51   26   49       1
    52   26   50       1
@<TRIPOS>SUBSTRUCTURE
     1 FMN300      1 GROUP             4 A     FMN     0 **** FMN A 300
