@<TRIPOS>MOLECULE
4yv0_S4M_3_ligand
   48    50     1     0     0
SMALL
NO_CHARGES


@<TRIPOS>ATOM
     1 CA         -13.7360    48.0590    -2.1990 C.3          1 S4M301   0.0000
     2 N          -12.9850    49.2090    -1.5470 N.4          1 S4M301   1.0000
     3 CB         -14.3930    47.1550    -1.1510 C.3          1 S4M301   0.0000
     4 CG         -15.8370    47.4640    -0.8750 C.3          1 S4M301   0.0000
     5 SD         -16.0160    48.0280     0.8550 S.3          1 S4M301   1.0000
     6 CE         -15.1820    46.6550     1.7120 C.3          1 S4M301   0.0000
     7 C5'        -17.8030    47.7410     1.0990 C.3          1 S4M301   0.0000
     8 C4'        -18.1120    48.6590     2.2970 C.3          1 S4M301   0.0000
     9 O4'        -19.4340    49.1800     2.2910 O.3          1 S4M301   0.0000
    10 C1'        -19.8490    49.3260     3.6460 C.3          1 S4M301   0.0000
    11 C2'        -19.3860    48.0210     4.2460 C.3          1 S4M301   0.0000
    12 O2'        -19.2110    48.0710     5.6330 O.3          1 S4M301   0.0000
    13 C3'        -18.0350    47.8270     3.5440 C.3          1 S4M301   0.0000
    14 O3'        -16.8830    48.2680     4.2680 O.3          1 S4M301   0.0000
    15 N9         -21.2790    49.5450     3.7410 N.pl3        1 S4M301   0.0000
    16 C8         -22.2650    48.6280     3.4250 C.2          1 S4M301   0.0000
    17 N7         -23.4480    49.1550     3.6400 N.2          1 S4M301   0.0000
    18 C5         -23.2350    50.4390     4.0940 C.ar         1 S4M301   0.0000
    19 C6         -24.0910    51.4710     4.4600 C.ar         1 S4M301   0.0000
    20 N6         -25.4720    51.3750     4.4580 N.pl3        1 S4M301   0.0000
    21 C4         -21.8850    50.7020     4.1440 C.ar         1 S4M301   0.0000
    22 N3         -21.3130    51.8350     4.5280 N.ar         1 S4M301   0.0000
    23 C2         -22.2190    52.7450     4.8610 C.ar         1 S4M301   0.0000
    24 N1         -23.5480    52.6280     4.8420 N.ar         1 S4M301   0.0000
    25 HA1        -13.0937    47.5162    -2.7402 H            1 S4M301   0.0000
    26 HA2        -14.4450    48.4314    -2.7979 H            1 S4M301   0.0000
    27 H3         -12.2122    49.4724    -2.1244 H            1 S4M301   0.0000
    28 H4         -13.6005    49.9895    -1.4374 H            1 S4M301   0.0000
    29 HB1        -13.8847    47.2495    -0.2950 H            1 S4M301   0.0000
    30 HB2        -14.3322    46.2099    -1.4722 H            1 S4M301   0.0000
    31 HG1        -16.3874    46.6412    -1.0165 H            1 S4M301   0.0000
    32 HG2        -16.1487    48.1842    -1.4948 H            1 S4M301   0.0000
    33 HE1        -15.1965    46.8197     2.6982 H            1 S4M301   0.0000
    34 HE2        -15.6569    45.7985     1.5101 H            1 S4M301   0.0000
    35 HE3        -14.2345    46.5927     1.3983 H            1 S4M301   0.0000
    36 H5'1       -17.9911    46.7833     1.3167 H            1 S4M301   0.0000
    37 H5'2       -18.3279    48.0085     0.2910 H            1 S4M301   0.0000
    38 H4'        -17.4478    49.4054     2.3393 H            1 S4M301   0.0000
    39 H1'        -19.3598    50.0877     4.0709 H            1 S4M301   0.0000
    40 H2'        -20.0146    47.2829     4.0010 H            1 S4M301   0.0000
    41 H17        -18.5242    48.7623     5.8576 H            1 S4M301   0.0000
    42 H3'        -17.9240    46.8647     3.2958 H            1 S4M301   0.0000
    43 H19        -16.9824    49.2369     4.4945 H            1 S4M301   0.0000
    44 H20        -22.1013    47.7023     3.0839 H            1 S4M301   0.0000
    45 H21        -26.0281    52.1590     4.7340 H            1 S4M301   0.0000
    46 H22        -25.9135    50.5217     4.1806 H            1 S4M301   0.0000
    47 H23        -21.8615    53.6284     5.1639 H            1 S4M301   0.0000
    48 H24        -12.6483    48.9215    -0.6504 H            1 S4M301   0.0000
@<TRIPOS>BOND
     1    1    2       1
     2    1    3       1
     3    3    4       1
     4    4    5       1
     5    5    6       1
     6    5    7       1
     7    7    8       1
     8    8    9       1
     9    8   13       1
    10    9   10       1
    11   10   11       1
    12   10   15       1
    13   11   12       1
    14   11   13       1
    15   13   14       1
    16   15   16       1
    17   15   21       1
    18   16   17       2
    19   17   18       1
    20   18   19      ar
    21   18   21      ar
    22   19   20       1
    23   19   24      ar
    24   21   22      ar
    25   22   23      ar
    26   23   24      ar
    27    1   25       1
    28    1   26       1
    29    2   27       1
    30    2   28       1
    31    3   29       1
    32    3   30       1
    33    4   31       1
    34    4   32       1
    35    6   33       1
    36    6   34       1
    37    6   35       1
    38    7   36       1
    39    7   37       1
    40    8   38       1
    41   10   39       1
    42   11   40       1
    43   12   41       1
    44   13   42       1
    45   14   43       1
    46   16   44       1
    47   20   45       1
    48   20   46       1
    49   23   47       1
    50    2   48       1
@<TRIPOS>SUBSTRUCTURE
     1 S4M301      1 GROUP             4 C     S4M     0 **** S4M C 301
