@<TRIPOS>MOLECULE
4ma6_28E_1_ligand
   35    37     1     0     0
SMALL
NO_CHARGES


@<TRIPOS>ATOM
     1 OAB         15.5590     1.2200    14.5800 O.3          1 28E202   0.0000
     2 CAT         14.2740     0.7730    14.4900 C.ar         1 28E202   0.0000
     3 CAK         13.9480    -0.1720    13.5480 C.ar         1 28E202   0.0000
     4 CAY         12.6580    -0.6450    13.4480 C.ar         1 28E202   0.0000
     5 OAG         12.4250    -1.5630    12.5000 O.3          1 28E202   0.0000
     6 CBD         11.6520    -0.2110    14.2810 C.ar         1 28E202   0.0000
     7 CAP         10.2210    -0.7220    14.1450 C.3          1 28E202   0.0000
     8 CAN         13.2840     1.2410    15.3310 C.ar         1 28E202   0.0000
     9 CBC         11.9800     0.7540    15.2240 C.ar         1 28E202   0.0000
    10 OAR         11.0410     1.2430    16.0800 O.3          1 28E202   0.0000
    11 CBF          9.6620     0.7830    16.0500 C.3          1 28E202   0.0000
    12 CBE          9.2680     0.3920    14.6240 C.3          1 28E202   0.0000
    13 OAQ          7.8470     0.1170    14.5610 O.3          1 28E202   0.0000
    14 CBA          9.4620    -0.2820    17.0840 C.ar         1 28E202   0.0000
    15 CAO          8.2610    -0.2670    17.7960 C.ar         1 28E202   0.0000
    16 CAV          8.0070    -1.1820    18.7990 C.ar         1 28E202   0.0000
    17 OAD          6.8160    -1.1380    19.4680 O.3          1 28E202   0.0000
    18 CAU          8.9610    -2.1170    19.1070 C.ar         1 28E202   0.0000
    19 OAC          8.6660    -2.9900    20.0850 O.3          1 28E202   0.0000
    20 CAI         10.1730    -2.1790    18.3990 C.ar         1 28E202   0.0000
    21 CAJ         10.4110    -1.2400    17.3940 C.ar         1 28E202   0.0000
    22 HAB         16.2581     0.8599    13.9622 H            1 28E202   0.0000
    23 HAK         14.6529    -0.5195    12.9297 H            1 28E202   0.0000
    24 HAG         13.1701    -1.8711    11.9085 H            1 28E202   0.0000
    25 HAP1        10.0977    -1.5391    14.7082 H            1 28E202   0.0000
    26 HAP2        10.0296    -0.9441    13.1889 H            1 28E202   0.0000
    27 HAN         13.5021     1.9321    16.0201 H            1 28E202   0.0000
    28 HBF          9.0875     1.5586    16.3117 H            1 28E202   0.0000
    29 HBE          9.4370     1.1898    14.0452 H            1 28E202   0.0000
    30 HAQ          7.3388     0.9102    14.8964 H            1 28E202   0.0000
    31 HAO          7.5698     0.4211    17.5750 H            1 28E202   0.0000
    32 HAD          6.1343    -0.4460    19.2304 H            1 28E202   0.0000
    33 HAC          9.3294    -3.6912    20.3462 H            1 28E202   0.0000
    34 HAI         10.8518    -2.8821    18.6109 H            1 28E202   0.0000
    35 HAJ         11.2762    -1.2599    16.8929 H            1 28E202   0.0000
@<TRIPOS>BOND
     1    1    2       1
     2    2    3      ar
     3    2    8      ar
     4    3    4      ar
     5    4    5       1
     6    4    6      ar
     7    6    7       1
     8    6    9      ar
     9    7   12       1
    10    8    9      ar
    11    9   10       1
    12   10   11       1
    13   11   12       1
    14   11   14       1
    15   12   13       1
    16   14   15      ar
    17   14   21      ar
    18   15   16      ar
    19   16   17       1
    20   16   18      ar
    21   18   19       1
    22   18   20      ar
    23   20   21      ar
    24    1   22       1
    25    3   23       1
    26    5   24       1
    27    7   25       1
    28    7   26       1
    29    8   27       1
    30   11   28       1
    31   12   29       1
    32   13   30       1
    33   15   31       1
    34   17   32       1
    35   19   33       1
    36   20   34       1
    37   21   35       1
@<TRIPOS>SUBSTRUCTURE
     1 28E202      1 GROUP             4 A     28E     0 **** 28E A 202
