@<TRIPOS>MOLECULE
4b1u_LAB_1_ligand
   58    60     1     0     0
SMALL
NO_CHARGES


@<TRIPOS>ATOM
     1 O5          15.7970   -17.7480    14.8780 O.2          1 LAB1376   0.0000
     2 C18         16.0810   -18.2880    15.9340 C.2          1 LAB1376   0.0000
     3 N1          17.4440   -18.5130    16.4590 N.am         1 LAB1376   0.0000
     4 C16         17.4040   -19.4760    17.5980 C.3          1 LAB1376   0.0000
     5 C17         16.0850   -19.3990    18.2790 C.3          1 LAB1376   0.0000
     6 S1          14.9300   -18.9500    17.0760 S.3          1 LAB1376   0.0000
     7 C15         17.7620   -20.8940    17.2180 C.3          1 LAB1376   0.0000
     8 O4          16.6690   -21.5040    16.6480 O.3          1 LAB1376   0.0000
     9 C14         18.9100   -20.9300    16.2030 C.3          1 LAB1376   0.0000
    10 C13         19.6220   -22.2810    16.1750 C.3          1 LAB1376   0.0000
    11 O2          18.8460   -23.2000    15.4900 O.3          1 LAB1376   0.0000
    12 C12         19.8610   -22.7980    17.5450 C.3          1 LAB1376   0.0000
    13 C11         18.5870   -22.8870    18.2920 C.3          1 LAB1376   0.0000
    14 O3          18.0640   -21.6190    18.3710 O.3          1 LAB1376   0.0000
    15 C10         18.8140   -23.4520    19.6850 C.3          1 LAB1376   0.0000
    16 C9          17.4860   -23.8530    20.3140 C.3          1 LAB1376   0.0000
    17 C8          16.6720   -24.8590    19.5370 C.3          1 LAB1376   0.0000
    18 C20         15.4670   -25.2940    20.2650 C.3          1 LAB1376   0.0000
    19 C7          17.4670   -26.1080    19.1820 C.3          1 LAB1376   0.0000
    20 C6          17.4390   -26.7010    17.9020 C.3          1 LAB1376   0.0000
    21 C5          17.0810   -25.9410    16.6340 C.3          1 LAB1376   0.0000
    22 C4          18.1540   -26.1490    15.5710 C.3          1 LAB1376   0.0000
    23 C3          17.6530   -25.7310    14.1880 C.2          1 LAB1376   0.0000
    24 C19         16.8050   -26.7180    13.4260 C.3          1 LAB1376   0.0000
    25 C2          18.0770   -24.5690    13.5050 C.2          1 LAB1376   0.0000
    26 C1          18.8050   -23.3680    14.1070 C.2          1 LAB1376   0.0000
    27 O1          19.2400   -22.4650    13.4050 O.2          1 LAB1376   0.0000
    28 H1          18.2731   -18.0822    16.1025 H            1 LAB1376   0.0000
    29 H2          18.0896   -19.1714    18.2592 H            1 LAB1376   0.0000
    30 H3          16.1116   -18.7115    19.0047 H            1 LAB1376   0.0000
    31 H4          15.8469   -20.2879    18.6704 H            1 LAB1376   0.0000
    32 H5          15.9137   -21.5145    17.3033 H            1 LAB1376   0.0000
    33 H6          19.5740   -20.2222    16.4443 H            1 LAB1376   0.0000
    34 H7          18.5398   -20.7434    15.2930 H            1 LAB1376   0.0000
    35 H8          20.4992   -22.1790    15.7059 H            1 LAB1376   0.0000
    36 H9          20.4829   -22.1804    18.0265 H            1 LAB1376   0.0000
    37 H10         20.2731   -23.7073    17.4868 H            1 LAB1376   0.0000
    38 H11         17.9515   -23.4773    17.7944 H            1 LAB1376   0.0000
    39 H12         19.2532   -22.7578    20.2553 H            1 LAB1376   0.0000
    40 H13         19.4059   -24.2556    19.6229 H            1 LAB1376   0.0000
    41 H14         16.9336   -23.0261    20.4192 H            1 LAB1376   0.0000
    42 H15         17.6777   -24.2427    21.2148 H            1 LAB1376   0.0000
    43 H16         16.3787   -24.4267    18.6843 H            1 LAB1376   0.0000
    44 H17         14.9640   -25.9572    19.7108 H            1 LAB1376   0.0000
    45 H18         15.7351   -25.7177    21.1302 H            1 LAB1376   0.0000
    46 H19         14.8842   -24.5023    20.4480 H            1 LAB1376   0.0000
    47 H20         17.1656   -26.8165    19.8201 H            1 LAB1376   0.0000
    48 H21         18.4251   -25.8842    19.3606 H            1 LAB1376   0.0000
    49 H22         16.7840   -27.4541    17.9637 H            1 LAB1376   0.0000
    50 H23         18.3565   -27.0687    17.7507 H            1 LAB1376   0.0000
    51 H24         17.0088   -24.9658    16.8433 H            1 LAB1376   0.0000
    52 H25         16.2040   -26.2733    16.2868 H            1 LAB1376   0.0000
    53 H26         18.4064   -27.1163    15.5476 H            1 LAB1376   0.0000
    54 H27         18.9565   -25.6008    15.8063 H            1 LAB1376   0.0000
    55 H28         16.5456   -26.3238    12.5443 H            1 LAB1376   0.0000
    56 H29         17.3258   -27.5583    13.2752 H            1 LAB1376   0.0000
    57 H30         15.9812   -26.9265    13.9532 H            1 LAB1376   0.0000
    58 H31         17.8801   -24.5284    12.5254 H            1 LAB1376   0.0000
@<TRIPOS>BOND
     1    1    2       2
     2    2    3      am
     3    2    6       1
     4    3    4       1
     5    4    5       1
     6    4    7       1
     7    5    6       1
     8    7    8       1
     9    7    9       1
    10    7   14       1
    11    9   10       1
    12   10   11       1
    13   10   12       1
    14   11   26       1
    15   12   13       1
    16   13   14       1
    17   13   15       1
    18   15   16       1
    19   16   17       1
    20   17   18       1
    21   17   19       1
    22   19   20       1
    23   20   21       1
    24   21   22       1
    25   22   23       1
    26   23   24       1
    27   23   25       2
    28   25   26       1
    29   26   27       2
    30    3   28       1
    31    4   29       1
    32    5   30       1
    33    5   31       1
    34    8   32       1
    35    9   33       1
    36    9   34       1
    37   10   35       1
    38   12   36       1
    39   12   37       1
    40   13   38       1
    41   15   39       1
    42   15   40       1
    43   16   41       1
    44   16   42       1
    45   17   43       1
    46   18   44       1
    47   18   45       1
    48   18   46       1
    49   19   47       1
    50   19   48       1
    51   20   49       1
    52   20   50       1
    53   21   51       1
    54   21   52       1
    55   22   53       1
    56   22   54       1
    57   24   55       1
    58   24   56       1
    59   24   57       1
    60   25   58       1
@<TRIPOS>SUBSTRUCTURE
     1 LAB1376     1 GROUP             4 B     LAB     0 **** LAB B1376
