@<TRIPOS>MOLECULE
2pz8_APC_1_ligand
   45    47     1     0     0
SMALL
NO_CHARGES


@<TRIPOS>ATOM
     1 PG          37.5450   -15.9140    -4.9430 P.3          1 APC3001   0.0000
     2 O1G         36.5900   -14.8680    -4.4820 O.co2        1 APC3001   0.0000
     3 O2G         36.8370   -17.1240    -4.4540 O.co2        1 APC3001  -1.0000
     4 O3G         38.8970   -15.7660    -4.3520 O.co2        1 APC3001  -1.0000
     5 PB          36.8840   -15.3130    -7.4290 P.3          1 APC3001   0.0000
     6 O1B         37.3670   -15.3560    -8.8230 O.co2        1 APC3001   0.0000
     7 O2B         36.5710   -13.8740    -7.2830 O.co2        1 APC3001  -1.0000
     8 O3B         37.9370   -15.9140    -6.4340 O.3          1 APC3001   0.0000
     9 PA          33.8840   -15.3410    -7.0980 P.3          1 APC3001   0.0000
    10 O1A         34.0150   -14.3860    -5.9680 O.co2        1 APC3001   0.0000
    11 O2A         32.8070   -16.2690    -6.6670 O.co2        1 APC3001  -1.0000
    12 C3A         35.3930   -16.2870    -7.3580 C.3          1 APC3001   0.0000
    13 O5'         33.3970   -14.6370    -8.4450 O.3          1 APC3001   0.0000
    14 C5'         32.9400   -15.4450    -9.5340 C.3          1 APC3001   0.0000
    15 C4'         33.4810   -14.9270   -10.8430 C.3          1 APC3001   0.0000
    16 O4'         32.8340   -13.6900   -11.2180 O.3          1 APC3001   0.0000
    17 C3'         34.9510   -14.5630   -10.8200 C.3          1 APC3001   0.0000
    18 O3'         35.7680   -15.7200   -10.8550 O.3          1 APC3001   0.0000
    19 C2'         35.0530   -13.6410   -12.0290 C.3          1 APC3001   0.0000
    20 O2'         35.2290   -14.3630   -13.2430 O.3          1 APC3001   0.0000
    21 C1'         33.7210   -12.8430   -11.9480 C.3          1 APC3001   0.0000
    22 N9          33.8820   -11.5960   -11.1720 N.pl3        1 APC3001   0.0000
    23 C8          33.3290   -11.2800    -9.9320 C.2          1 APC3001   0.0000
    24 N7          33.6520   -10.0900    -9.4840 N.2          1 APC3001   0.0000
    25 C5          34.4630    -9.5720   -10.4850 C.ar         1 APC3001   0.0000
    26 C6          35.1380    -8.3300   -10.6310 C.ar         1 APC3001   0.0000
    27 N6          35.0900    -7.3580    -9.7100 N.pl3        1 APC3001   0.0000
    28 N1          35.8790    -8.1170   -11.7760 N.ar         1 APC3001   0.0000
    29 C2          35.9380    -9.0970   -12.7130 C.ar         1 APC3001   0.0000
    30 N3          35.3450   -10.3090   -12.6810 N.ar         1 APC3001   0.0000
    31 C4          34.6180   -10.4870   -11.5350 C.ar         1 APC3001   0.0000
    32 H3A1        35.4838   -16.9403    -6.6064 H            1 APC3001   0.0000
    33 H3A2        35.3041   -16.7830    -8.2218 H            1 APC3001   0.0000
    34 H5'1        31.9405   -15.4256    -9.5608 H            1 APC3001   0.0000
    35 H5'2        33.2517   -16.3855    -9.3988 H            1 APC3001   0.0000
    36 H4'         33.3230   -15.6095   -11.5566 H            1 APC3001   0.0000
    37 H3'         35.1499   -14.0427    -9.9895 H            1 APC3001   0.0000
    38 H7          36.3397   -15.7493   -10.0350 H            1 APC3001   0.0000
    39 H2'         35.8219   -13.0143   -11.9027 H            1 APC3001   0.0000
    40 H9          35.7557   -13.8085   -13.8873 H            1 APC3001   0.0000
    41 H1'         33.3623   -12.6520   -12.8617 H            1 APC3001   0.0000
    42 H11         32.7363   -11.9073    -9.4268 H            1 APC3001   0.0000
    43 H12         35.5835    -6.5014    -9.8609 H            1 APC3001   0.0000
    44 H13         34.5607    -7.4892    -8.8718 H            1 APC3001   0.0000
    45 H14         36.4868    -8.8971   -13.5247 H            1 APC3001   0.0000
@<TRIPOS>BOND
     1    1    2      ar
     2    1    3      ar
     3    1    4      ar
     4    1    8       1
     5    5    6      ar
     6    5    7      ar
     7    5    8       1
     8    5   12       1
     9    9   10      ar
    10    9   11      ar
    11    9   12       1
    12    9   13       1
    13   13   14       1
    14   14   15       1
    15   15   16       1
    16   15   17       1
    17   16   21       1
    18   17   18       1
    19   17   19       1
    20   19   20       1
    21   19   21       1
    22   21   22       1
    23   22   23       1
    24   22   31       1
    25   23   24       2
    26   24   25       1
    27   25   26      ar
    28   25   31      ar
    29   26   27       1
    30   26   28      ar
    31   28   29      ar
    32   29   30      ar
    33   30   31      ar
    34   29   45       1
    35   27   44       1
    36   27   43       1
    37   23   42       1
    38   12   32       1
    39   12   33       1
    40   14   34       1
    41   14   35       1
    42   15   36       1
    43   17   37       1
    44   18   38       1
    45   19   39       1
    46   20   40       1
    47   21   41       1
@<TRIPOS>SUBSTRUCTURE
     1 APC3001     1 GROUP             4 A     APC     0 **** APC A3001
