@<TRIPOS>MOLECULE
./coach420/2art/ligand.pdb
 34 36 0 0 0
SMALL
GASTEIGER

@<TRIPOS>ATOM
      1 MG         14.8590   29.2720   24.6290 Mg    1301  MG1301      0.0000
      2  O2        11.2080   30.4640   27.3130 O.3   301  LPA301      0.0000
      3  C1        12.3440   29.7180   27.6520 C.3   301  LPA301      0.0000
      4  C2        13.1570   30.3500   28.7910 C.3   301  LPA301      0.0000
      5  C3        14.3870   29.5560   29.2690 C.3   301  LPA301      0.0000
      6  C4        14.2390   29.0580   30.7030 C.3   301  LPA301      0.0000
      7  C5        15.5890   28.7430   31.3360 C.3   301  LPA301      0.0000
      8  C6        15.5450   27.9080   32.6170 C.3   301  LPA301      0.0000
      9  C7        14.4570   28.4910   33.4850 C.3   301  LPA301      0.0000
     10  C8        14.8750   29.0420   34.9160 C.3   301  LPA301      0.0000
     11  S8        16.5720   29.2880   35.0520 S.3   301  LPA301      0.0000
     12  S6        16.9640   28.0620   33.4970 S.3   301  LPA301      0.0000
     13  P         10.8220   30.8500   25.7590 P.3   302  AMP302      0.0000
     14  O1P       10.6570   32.2950   25.6200 O.3   302  AMP302     -0.5000
     15  O2P       11.9550   30.2990   24.8240 O.2   302  AMP302     -0.5000
     16  O5'        9.4560   30.1410   25.3040 O.3   302  AMP302      0.0000
     17  C5'        8.7400   29.4560   26.2250 C.3   302  AMP302      0.0000
     18  C4'        7.8960   28.2830   25.8570 C.3   302  AMP302      0.0000
     19  O4'        8.4990   27.0300   26.1640 O.3   302  AMP302      0.0000
     20  C3'        6.5680   28.2140   26.5880 C.3   302  AMP302      0.0000
     21  O3'        5.4050   29.0150   26.4450 O.3   302  AMP302      0.0000
     22  C2'        6.1780   26.8110   26.3540 C.3   302  AMP302      0.0000
     23  O2'        5.5860   26.5460   25.0510 O.3   302  AMP302      0.0000
     24  C1'        7.4820   26.0220   26.5050 C.3   302  AMP302      0.0000
     25  N9         7.9170   25.6120   27.8470 N.ar  302  AMP302      0.0000
     26  C8         7.3680   25.8030   29.0770 C.ar  302  AMP302      0.0000
     27  N7         8.0790   25.2790   30.0180 N.ar  302  AMP302      0.0000
     28  C5         9.1600   24.6980   29.4760 C.ar  302  AMP302      0.0000
     29  C6        10.2900   23.9890   29.8770 C.ar  302  AMP302      0.0000
     30  N6        10.4170   23.7830   31.1530 N.pl3 302  AMP302      0.0000
     31  N1        11.2200   23.5350   28.9830 N.ar  302  AMP302      0.0000
     32  C2        11.1180   23.7390   27.6270 C.ar  302  AMP302      0.0000
     33  N3        10.0590   24.4090   27.2110 N.ar  302  AMP302      0.0000
     34  C4         9.0740   24.9020   28.0490 C.ar  302  AMP302      0.0000
@<TRIPOS>BOND
     1     2    13    1
     2     2     3    1
     3     3     4    1
     4     4     5    1
     5     5     6    1
     6     6     7    1
     7     7     8    1
     8     8     9    1
     9     8    12    1
    10     9    10    1
    11    10    11    1
    12    11    12    1
    13    13    15    2
    14    13    16    1
    15    13    14    1
    16    16    17    1
    17    17    18    1
    18    18    19    1
    19    18    20    1
    20    19    24    1
    21    20    22    1
    22    20    21    1
    23    22    23    1
    24    22    24    1
    25    24    25    1
    26    25    34   ar
    27    25    26   ar
    28    26    27   ar
    29    27    28   ar
    30    28    34   ar
    31    28    29   ar
    32    29    31   ar
    33    29    30    1
    34    31    32   ar
    35    32    33   ar
    36    33    34   ar
