@<TRIPOS>MOLECULE
1zos_MTM_6_ligand
   38    40     1     0     0
SMALL
NO_CHARGES


@<TRIPOS>ATOM
     1 CS          17.9180    32.4870    50.7010 C.3          1 MTM306   0.0000
     2 S5'         18.7140    30.9520    51.2620 S.3          1 MTM306   0.0000
     3 C5'         18.0880    29.7880    50.0160 C.3          1 MTM306   0.0000
     4 C4'         16.6920    29.1860    50.2830 C.3          1 MTM306   0.0000
     5 N4'         16.1590    28.6360    49.0210 N.4          1 MTM306   1.0000
     6 C2'         16.9840    26.8000    50.2800 C.3          1 MTM306   0.0000
     7 O2'         16.2890    25.5750    50.6740 O.3          1 MTM306   0.0000
     8 C3'         16.6870    28.0140    51.2660 C.3          1 MTM306   0.0000
     9 O3'         15.3330    27.8660    51.8590 O.3          1 MTM306   0.0000
    10 C1'         16.5840    27.2310    48.8190 C.3          1 MTM306   0.0000
    11 C9          17.7580    27.2430    47.7230 C.2          1 MTM306   0.0000
    12 C8          17.5870    27.6030    46.3910 C.2          1 MTM306   0.0000
    13 N7          18.6790    27.5560    45.6630 N.pl3        1 MTM306   0.0000
    14 C5          19.6570    27.1410    46.5460 C.ar         1 MTM306   0.0000
    15 C6          21.0700    26.8910    46.4290 C.ar         1 MTM306   0.0000
    16 N6          21.7200    27.0600    45.2700 N.pl3        1 MTM306   0.0000
    17 N1          21.7720    26.4620    47.5870 N.ar         1 MTM306   0.0000
    18 C2          21.1150    26.2940    48.7810 C.ar         1 MTM306   0.0000
    19 N3          19.7960    26.5070    48.9990 N.ar         1 MTM306   0.0000
    20 C4          19.1210    26.9310    47.8330 C.ar         1 MTM306   0.0000
    21 HS1         18.1772    33.2381    51.3082 H            1 MTM306   0.0000
    22 HS2         18.2143    32.6947    49.7687 H            1 MTM306   0.0000
    23 HS3         16.9247    32.3727    50.7174 H            1 MTM306   0.0000
    24 H5'1        18.7388    29.0315    49.9516 H            1 MTM306   0.0000
    25 H5'2        18.0496    30.2701    49.1407 H            1 MTM306   0.0000
    26 H4'         16.0799    29.9025    50.6176 H            1 MTM306   0.0000
    27 H4'1        16.4935    29.1896    48.2583 H            1 MTM306   0.0000
    28 H2'         17.9675    26.6195    50.2942 H            1 MTM306   0.0000
    29 H9          15.7543    25.7466    51.5014 H            1 MTM306   0.0000
    30 H3'         17.3943    28.1095    51.9664 H            1 MTM306   0.0000
    31 H11         15.3323    27.0994    52.5011 H            1 MTM306   0.0000
    32 H1'         15.8146    26.6806    48.4950 H            1 MTM306   0.0000
    33 H13         16.7011    27.8765    46.0163 H            1 MTM306   0.0000
    34 H14         18.7796    27.7714    44.6917 H            1 MTM306   0.0000
    35 H15         22.7020    26.8791    45.2165 H            1 MTM306   0.0000
    36 H16         21.2232    27.3671    44.4583 H            1 MTM306   0.0000
    37 H17         21.6606    25.9863    49.5605 H            1 MTM306   0.0000
    38 H4'2        15.1600    28.6729    49.0467 H            1 MTM306   0.0000
@<TRIPOS>BOND
     1    1    2       1
     2    2    3       1
     3    3    4       1
     4    4    5       1
     5    4    8       1
     6    5   10       1
     7    6    7       1
     8    6    8       1
     9    6   10       1
    10    8    9       1
    11   10   11       1
    12   11   12       2
    13   11   20       1
    14   12   13       1
    15   13   14       1
    16   14   15      ar
    17   14   20      ar
    18   15   16       1
    19   15   17      ar
    20   17   18      ar
    21   18   19      ar
    22   19   20      ar
    23    1   21       1
    24    1   22       1
    25    1   23       1
    26    3   24       1
    27    3   25       1
    28    4   26       1
    29    5   27       1
    30    6   28       1
    31    7   29       1
    32    8   30       1
    33    9   31       1
    34   10   32       1
    35   12   33       1
    36   13   34       1
    37   16   35       1
    38   16   36       1
    39   18   37       1
    40    5   38       1
@<TRIPOS>SUBSTRUCTURE
     1 MTM306      1 GROUP             4 F     MTM     0 **** MTM F 306
