@<TRIPOS>MOLECULE
3ox4_NAD_1_ligand
   70    74     1     0     0
SMALL
NO_CHARGES


@<TRIPOS>ATOM
     1 PA          35.0780    -9.5990    73.3050 P.3          1 NAD1385   0.0000
     2 O1A         34.1170    -9.1840    72.3060 O.co2        1 NAD1385   0.0000
     3 O2A         36.1860   -10.6050    73.4230 O.co2        1 NAD1385  -1.0000
     4 O5B         35.3440    -8.2800    74.3290 O.3          1 NAD1385   0.0000
     5 C5B         36.5700    -8.1680    75.0840 C.3          1 NAD1385   0.0000
     6 C4B         36.5030    -6.9160    76.0010 C.3          1 NAD1385   0.0000
     7 O4B         36.9440    -5.7110    75.3130 O.3          1 NAD1385   0.0000
     8 C3B         35.1690    -6.5470    76.6520 C.3          1 NAD1385   0.0000
     9 O3B         35.3470    -6.2840    78.0720 O.3          1 NAD1385   0.0000
    10 C2B         34.6840    -5.3300    75.9320 C.3          1 NAD1385   0.0000
    11 O2B         33.7230    -4.4740    76.5720 O.3          1 NAD1385   0.0000
    12 C1B         35.9830    -4.7050    75.6100 C.3          1 NAD1385   0.0000
    13 N9A         35.9440    -3.7180    74.4930 N.pl3        1 NAD1385   0.0000
    14 C8A         35.4090    -3.8390    73.1930 C.2          1 NAD1385   0.0000
    15 N7A         35.5860    -2.7200    72.5070 N.2          1 NAD1385   0.0000
    16 C5A         36.2370    -1.8500    73.3350 C.ar         1 NAD1385   0.0000
    17 C6A         36.7190    -0.4990    73.2240 C.ar         1 NAD1385   0.0000
    18 N6A         36.5580     0.1800    72.0850 N.pl3        1 NAD1385   0.0000
    19 N1A         37.3550     0.0950    74.3030 N.ar         1 NAD1385   0.0000
    20 C2A         37.5260    -0.5950    75.4740 C.ar         1 NAD1385   0.0000
    21 N3A         37.1070    -1.8660    75.6730 N.ar         1 NAD1385   0.0000
    22 C4A         36.4640    -2.4440    74.5560 C.ar         1 NAD1385   0.0000
    23 O3          36.1910    -9.0520    72.2700 O.3          1 NAD1385   0.0000
    24 PN          36.8100    -9.5490    70.8460 P.3          1 NAD1385   0.0000
    25 O1N         38.2270    -9.8830    71.1040 O.co2        1 NAD1385   0.0000
    26 O2N         36.5000    -8.4370    69.9080 O.co2        1 NAD1385  -1.0000
    27 O5D         35.7870   -10.7990    70.6170 O.3          1 NAD1385   0.0000
    28 C5D         36.2650   -12.2020    70.6620 C.3          1 NAD1385   0.0000
    29 C4D         35.0440   -13.1520    70.4450 C.3          1 NAD1385   0.0000
    30 O4D         34.9340   -13.4690    69.0550 O.3          1 NAD1385   0.0000
    31 C3D         35.1910   -14.4850    71.1820 C.3          1 NAD1385   0.0000
    32 O3D         33.9190   -14.8920    71.7280 O.3          1 NAD1385   0.0000
    33 C2D         35.7620   -15.4070    70.1410 C.3          1 NAD1385   0.0000
    34 O2D         35.6070   -16.7740    70.5020 O.3          1 NAD1385   0.0000
    35 C1D         34.9770   -14.8980    68.8590 C.3          1 NAD1385   0.0000
    36 N1N         35.6790   -15.1980    67.5600 N.ar         1 NAD1385   1.0000
    37 C2N         35.0790   -16.2580    66.8000 C.ar         1 NAD1385   0.0000
    38 C3N         35.7100   -16.6050    65.5260 C.ar         1 NAD1385   0.0000
    39 C7N         35.1340   -17.6880    64.7020 C.2          1 NAD1385   0.0000
    40 O7N         34.0717   -17.5704    64.0470 O.2          1 NAD1385   0.0000
    41 N7N         35.7543   -18.8897    64.6313 N.am         1 NAD1385   0.0000
    42 C4N         36.8690   -15.8750    65.1260 C.ar         1 NAD1385   0.0000
    43 C5N         37.4370   -14.8460    65.8800 C.ar         1 NAD1385   0.0000
    44 C6N         36.8490   -14.5010    67.0970 C.ar         1 NAD1385   0.0000
    45 H5B1        37.3418    -8.0788    74.4545 H            1 NAD1385   0.0000
    46 H5B2        36.6910    -8.9863    75.6459 H            1 NAD1385   0.0000
    47 H4B         37.1510    -7.0728    76.7464 H            1 NAD1385   0.0000
    48 H3B         34.5160    -7.2940    76.5276 H            1 NAD1385   0.0000
    49 H5          34.4658    -6.0449    78.4797 H            1 NAD1385   0.0000
    50 H2B         34.2805    -5.6365    75.0699 H            1 NAD1385   0.0000
    51 H7          32.7990    -4.7791    76.3414 H            1 NAD1385   0.0000
    52 H1B         36.2957    -4.2220    76.4279 H            1 NAD1385   0.0000
    53 H8A         34.9578    -4.6578    72.8381 H            1 NAD1385   0.0000
    54 H6A1        36.8941     1.1189    72.0108 H            1 NAD1385   0.0000
    55 H6A2        36.1014    -0.2506    71.3065 H            1 NAD1385   0.0000
    56 H2A         37.9893    -0.1304    76.2287 H            1 NAD1385   0.0000
    57 H5D1        36.6821   -12.3874    71.5518 H            1 NAD1385   0.0000
    58 H5D2        36.9403   -12.3511    69.9397 H            1 NAD1385   0.0000
    59 H4D         34.2084   -12.6943    70.7489 H            1 NAD1385   0.0000
    60 H3D         35.8506   -14.3793    71.9262 H            1 NAD1385   0.0000
    61 H17         33.5935   -14.1967    72.3688 H            1 NAD1385   0.0000
    62 H2D         36.7354   -15.2080    70.0277 H            1 NAD1385   0.0000
    63 H19         35.9977   -17.3539    69.7871 H            1 NAD1385   0.0000
    64 H1D         34.0506   -15.2744    68.8475 H            1 NAD1385   0.0000
    65 H2N         34.2652   -16.7384    67.1270 H            1 NAD1385   0.0000
    66 H7N1        35.3579   -19.6254    64.0821 H            1 NAD1385   0.0000
    67 H7N2        36.6086   -19.0414    65.1283 H            1 NAD1385   0.0000
    68 H4N         37.2993   -16.1141    64.2555 H            1 NAD1385   0.0000
    69 H5N         38.2507   -14.3651    65.5534 H            1 NAD1385   0.0000
    70 H6N         37.2424   -13.7663    67.6497 H            1 NAD1385   0.0000
@<TRIPOS>BOND
     1    1    2      ar
     2    1    3      ar
     3    1    4       1
     4    1   23       1
     5    4    5       1
     6    5    6       1
     7    6    7       1
     8    6    8       1
     9    7   12       1
    10    8    9       1
    11    8   10       1
    12   10   11       1
    13   10   12       1
    14   12   13       1
    15   13   14       1
    16   13   22       1
    17   14   15       2
    18   15   16       1
    19   16   17      ar
    20   16   22      ar
    21   17   18       1
    22   17   19      ar
    23   19   20      ar
    24   20   21      ar
    25   21   22      ar
    26   23   24       1
    27   24   25      ar
    28   24   26      ar
    29   24   27       1
    30   27   28       1
    31   28   29       1
    32   29   30       1
    33   29   31       1
    34   30   35       1
    35   31   32       1
    36   31   33       1
    37   33   34       1
    38   33   35       1
    39   35   36       1
    40   36   37      ar
    41   36   44      ar
    42   37   38      ar
    43   38   39       1
    44   38   42      ar
    45   39   40       2
    46   39   41      am
    47   42   43      ar
    48   43   44      ar
    49   44   70       1
    50    5   45       1
    51    5   46       1
    52    6   47       1
    53    8   48       1
    54    9   49       1
    55   10   50       1
    56   11   51       1
    57   12   52       1
    58   14   53       1
    59   18   54       1
    60   18   55       1
    61   20   56       1
    62   43   69       1
    63   28   57       1
    64   28   58       1
    65   29   59       1
    66   31   60       1
    67   32   61       1
    68   33   62       1
    69   34   63       1
    70   35   64       1
    71   37   65       1
    72   41   66       1
    73   41   67       1
    74   42   68       1
@<TRIPOS>SUBSTRUCTURE
     1 NAD1385     1 GROUP             4 A     NAD     0 **** NAD A1385
