@<TRIPOS>MOLECULE
3da1_FAD_1_ligand
   84    89     1     0     0
SMALL
NO_CHARGES


@<TRIPOS>ATOM
     1 PA          30.0910    40.1010    78.7110 P.3          1 FAD609   0.0000
     2 O1A         30.2110    41.0640    79.8320 O.co2        1 FAD609   0.0000
     3 O2A         28.8070    39.1720    79.0130 O.co2        1 FAD609  -1.0000
     4 O5B         29.9200    40.8950    77.3070 O.3          1 FAD609   0.0000
     5 C5B         28.7870    41.7400    77.3860 C.3          1 FAD609   0.0000
     6 C4B         28.7340    42.5570    76.1080 C.3          1 FAD609   0.0000
     7 O4B         28.6330    41.8180    74.8350 O.3          1 FAD609   0.0000
     8 C3B         27.5650    43.5570    76.1550 C.3          1 FAD609   0.0000
     9 O3B         28.0540    44.8900    76.3530 O.3          1 FAD609   0.0000
    10 C2B         26.8720    43.3720    74.7990 C.3          1 FAD609   0.0000
    11 O2B         26.4050    44.6410    74.3430 O.3          1 FAD609   0.0000
    12 C1B         28.0020    42.7830    73.9340 C.3          1 FAD609   0.0000
    13 N9A         27.4290    42.1830    72.7020 N.pl3        1 FAD609   0.0000
    14 C8A         26.5220    41.1640    72.6150 C.2          1 FAD609   0.0000
    15 N7A         26.2390    40.9070    71.3750 N.2          1 FAD609   0.0000
    16 C5A         26.9220    41.7400    70.5620 C.ar         1 FAD609   0.0000
    17 C6A         27.0270    41.9320    69.1250 C.ar         1 FAD609   0.0000
    18 N6A         26.2950    41.1530    68.2350 N.pl3        1 FAD609   0.0000
    19 N1A         27.8570    42.9130    68.6650 N.ar         1 FAD609   0.0000
    20 C2A         28.5770    43.6780    69.5160 C.ar         1 FAD609   0.0000
    21 N3A         28.5080    43.5180    70.8350 N.ar         1 FAD609   0.0000
    22 C4A         27.7070    42.5770    71.4030 C.ar         1 FAD609   0.0000
    23 N1          31.9390    36.6170    88.7020 N.2          1 FAD609   0.0000
    24 C2          32.8530    36.5090    89.6810 C.2          1 FAD609   0.0000
    25 O2          34.0150    36.4490    89.3750 O.2          1 FAD609   0.0000
    26 N3          32.5800    36.5080    90.9720 N.pl3        1 FAD609   0.0000
    27 C4          31.3150    36.5590    91.4370 C.2          1 FAD609   0.0000
    28 O4          31.0920    36.5630    92.6200 O.2          1 FAD609   0.0000
    29 C4X         30.2300    36.6860    90.4210 C.2          1 FAD609   0.0000
    30 N5          28.9710    36.7330    90.7700 N.2          1 FAD609   0.0000
    31 C5X         27.9650    36.8360    89.8530 C.ar         1 FAD609   0.0000
    32 C6          26.6110    36.9180    90.3160 C.ar         1 FAD609   0.0000
    33 C7          25.5780    37.0130    89.3510 C.ar         1 FAD609   0.0000
    34 C7M         24.1460    37.1090    89.7840 C.3          1 FAD609   0.0000
    35 C8          25.8690    37.0440    87.9510 C.ar         1 FAD609   0.0000
    36 C8M         24.7680    37.1490    86.9520 C.3          1 FAD609   0.0000
    37 C9          27.1770    36.9660    87.4890 C.ar         1 FAD609   0.0000
    38 C9A         28.2470    36.8660    88.4370 C.ar         1 FAD609   0.0000
    39 N10         29.6160    36.8000    87.9770 N.pl3        1 FAD609   0.0000
    40 C10         30.6350    36.6620    88.9660 C.2          1 FAD609   0.0000
    41 C1'         29.8160    36.8810    86.4930 C.3          1 FAD609   0.0000
    42 C2'         31.1810    36.7310    85.8050 C.3          1 FAD609   0.0000
    43 O2'         32.0670    37.6550    86.4080 O.3          1 FAD609   0.0000
    44 C3'         30.9310    37.0960    84.3120 C.3          1 FAD609   0.0000
    45 O3'         30.0190    36.1500    83.7350 O.3          1 FAD609   0.0000
    46 C4'         32.1470    37.0580    83.3560 C.3          1 FAD609   0.0000
    47 O4'         33.1490    37.9620    83.8640 O.3          1 FAD609   0.0000
    48 C5'         31.6390    37.6330    82.0450 C.3          1 FAD609   0.0000
    49 O5'         32.5370    37.6650    80.9200 O.3          1 FAD609   0.0000
    50 P           31.6140    38.5560    79.9680 P.3          1 FAD609   0.0000
    51 O1P         32.8580    39.3670    79.9140 O.co2        1 FAD609   0.0000
    52 O2P         31.4080    37.1970    79.1420 O.co2        1 FAD609  -1.0000
    53 O3P         31.4790    39.2180    78.5650 O.3          1 FAD609   0.0000
    54 H5B1        28.8692    42.3476    78.1760 H            1 FAD609   0.0000
    55 H5B2        27.9566    41.1897    77.4736 H            1 FAD609   0.0000
    56 H4B         29.5768    43.0938    76.0687 H            1 FAD609   0.0000
    57 H3B         26.9373    43.3118    76.8939 H            1 FAD609   0.0000
    58 H5          27.3712    45.4251    76.8504 H            1 FAD609   0.0000
    59 H2B         26.1137    42.7247    74.8764 H            1 FAD609   0.0000
    60 H7          27.1797    45.2656    74.2447 H            1 FAD609   0.0000
    61 H1B         28.6550    43.5005    73.6917 H            1 FAD609   0.0000
    62 H8A         26.1304    40.6827    73.3992 H            1 FAD609   0.0000
    63 H6A1        26.3830    41.3027    67.2502 H            1 FAD609   0.0000
    64 H6A2        25.6807    40.4433    68.5800 H            1 FAD609   0.0000
    65 H2A         29.1787    44.3844    69.1433 H            1 FAD609   0.0000
    66 H13         33.3351    36.4682    91.6264 H            1 FAD609   0.0000
    67 H14         26.4011    36.9084    91.2937 H            1 FAD609   0.0000
    68 H7M1        23.5573    37.1683    88.9779 H            1 FAD609   0.0000
    69 H7M2        23.9032    36.2972    90.3151 H            1 FAD609   0.0000
    70 H7M3        24.0223    37.9255    90.3479 H            1 FAD609   0.0000
    71 H8M1        25.1544    37.1571    86.0297 H            1 FAD609   0.0000
    72 H8M2        24.1539    36.3658    87.0492 H            1 FAD609   0.0000
    73 H8M3        24.2570    37.9945    87.1067 H            1 FAD609   0.0000
    74 H21         27.3693    36.9795    86.5077 H            1 FAD609   0.0000
    75 H1'1        29.4717    37.7796    86.2209 H            1 FAD609   0.0000
    76 H1'2        29.2342    36.1684    86.1010 H            1 FAD609   0.0000
    77 H2'         31.5250    35.7961    85.8922 H            1 FAD609   0.0000
    78 H25         32.1446    37.4539    87.3845 H            1 FAD609   0.0000
    79 H3'         30.5183    38.0059    84.2694 H            1 FAD609   0.0000
    80 H27         29.2038    36.6289    83.4092 H            1 FAD609   0.0000
    81 H4'         32.5040    36.1307    83.2432 H            1 FAD609   0.0000
    82 H29         33.0800    38.0103    84.8604 H            1 FAD609   0.0000
    83 H5'1        31.3561    38.5751    82.2248 H            1 FAD609   0.0000
    84 H5'2        30.8431    37.0921    81.7732 H            1 FAD609   0.0000
@<TRIPOS>BOND
     1    1    2      ar
     2    1    3      ar
     3    1    4       1
     4   50   53       1
     5    1   53       1
     6    4    5       1
     7    5    6       1
     8    6    7       1
     9    6    8       1
    10    7   12       1
    11    8    9       1
    12    8   10       1
    13   10   11       1
    14   10   12       1
    15   12   13       1
    16   13   14       1
    17   13   22       1
    18   14   15       2
    19   15   16       1
    20   16   17      ar
    21   16   22      ar
    22   17   18       1
    23   17   19      ar
    24   19   20      ar
    25   20   21      ar
    26   21   22      ar
    27   23   24       1
    28   23   40       2
    29   24   25       2
    30   24   26       1
    31   26   27       1
    32   27   28       2
    33   27   29       1
    34   29   30       2
    35   29   40       1
    36   30   31       1
    37   31   32      ar
    38   31   38      ar
    39   32   33      ar
    40   33   34       1
    41   33   35      ar
    42   35   36       1
    43   35   37      ar
    44   37   38      ar
    45   38   39       1
    46   39   40       1
    47   39   41       1
    48   41   42       1
    49   42   43       1
    50   42   44       1
    51   44   45       1
    52   44   46       1
    53   46   47       1
    54   46   48       1
    55   48   49       1
    56   49   50       1
    57   50   51      ar
    58   50   52      ar
    59   48   84       1
    60    5   54       1
    61    5   55       1
    62    6   56       1
    63    8   57       1
    64    9   58       1
    65   10   59       1
    66   11   60       1
    67   12   61       1
    68   14   62       1
    69   18   63       1
    70   18   64       1
    71   20   65       1
    72   26   66       1
    73   32   67       1
    74   34   68       1
    75   34   69       1
    76   34   70       1
    77   36   71       1
    78   36   72       1
    79   36   73       1
    80   37   74       1
    81   41   75       1
    82   41   76       1
    83   42   77       1
    84   43   78       1
    85   44   79       1
    86   45   80       1
    87   46   81       1
    88   47   82       1
    89   48   83       1
@<TRIPOS>SUBSTRUCTURE
     1 FAD609      1 GROUP             4 A     FAD     0 **** FAD A 609
