@<TRIPOS>MOLECULE
3of4_FMN_2_ligand
   50    52     1     0     0
SMALL
NO_CHARGES


@<TRIPOS>ATOM
     1 N1          42.6960    78.8570    17.8830 N.2          1 FMN250   0.0000
     2 C2          41.8030    79.9010    17.8150 C.2          1 FMN250   0.0000
     3 O2          42.0510    80.8770    17.0960 O.2          1 FMN250   0.0000
     4 N3          40.6340    79.8650    18.5370 N.pl3        1 FMN250   0.0000
     5 C4          40.3310    78.7900    19.3540 C.2          1 FMN250   0.0000
     6 O4          39.2470    78.8320    19.9870 O.2          1 FMN250   0.0000
     7 C4A         41.2440    77.7160    19.4320 C.2          1 FMN250   0.0000
     8 N5          41.0240    76.6030    20.2150 N.2          1 FMN250   0.0000
     9 C5A         41.7880    75.4600    19.9990 C.ar         1 FMN250   0.0000
    10 C6          41.3890    74.2420    20.5530 C.ar         1 FMN250   0.0000
    11 C7          42.1220    73.0810    20.3440 C.ar         1 FMN250   0.0000
    12 C7M         41.6790    71.7800    20.9410 C.3          1 FMN250   0.0000
    13 C8          43.2870    73.1130    19.5870 C.ar         1 FMN250   0.0000
    14 C8M         44.0740    71.8410    19.3680 C.3          1 FMN250   0.0000
    15 C9          43.6930    74.3320    19.0340 C.ar         1 FMN250   0.0000
    16 C9A         42.9570    75.5170    19.2320 C.ar         1 FMN250   0.0000
    17 N10         43.3480    76.7390    18.7020 N.pl3        1 FMN250   0.0000
    18 C10         42.4380    77.7630    18.6780 C.2          1 FMN250   0.0000
    19 C1'         44.5440    76.7840    17.7740 C.3          1 FMN250   0.0000
    20 C2'         45.8210    76.5850    18.6050 C.3          1 FMN250   0.0000
    21 O2'         46.0160    77.8290    19.1800 O.3          1 FMN250   0.0000
    22 C3'         47.0260    76.0780    17.7500 C.3          1 FMN250   0.0000
    23 O3'         46.7320    74.7640    17.3250 O.3          1 FMN250   0.0000
    24 C4'         48.4000    75.9130    18.4530 C.3          1 FMN250   0.0000
    25 O4'         48.9230    77.1740    18.7920 O.3          1 FMN250   0.0000
    26 C5'         49.4290    75.1360    17.5950 C.3          1 FMN250   0.0000
    27 O5'         49.7830    75.8630    16.4210 O.3          1 FMN250   0.0000
    28 P           49.4500    75.4430    14.8640 P.3          1 FMN250   0.0000
    29 O1P         48.1790    74.6620    14.9870 O.co2        1 FMN250   0.0000
    30 O2P         50.4810    74.5500    14.2220 O.co2        1 FMN250  -1.0000
    31 O3P         49.2310    76.7220    14.1470 O.co2        1 FMN250  -1.0000
    32 H1          39.9916    80.6285    18.4708 H            1 FMN250   0.0000
    33 H2          40.5598    74.2049    21.1108 H            1 FMN250   0.0000
    34 H7M1        42.3240    71.0596    20.6863 H            1 FMN250   0.0000
    35 H7M2        41.6488    71.8634    21.9371 H            1 FMN250   0.0000
    36 H7M3        40.7685    71.5487    20.5981 H            1 FMN250   0.0000
    37 H8M1        44.8774    72.0386    18.8063 H            1 FMN250   0.0000
    38 H8M2        44.3667    71.4739    20.2509 H            1 FMN250   0.0000
    39 H8M3        43.4985    71.1690    18.9019 H            1 FMN250   0.0000
    40 H9          44.5274    74.3632    18.4838 H            1 FMN250   0.0000
    41 H1'1        44.5781    77.6702    17.3119 H            1 FMN250   0.0000
    42 H1'2        44.4689    76.0556    17.0930 H            1 FMN250   0.0000
    43 H2'         45.6355    75.9200    19.3284 H            1 FMN250   0.0000
    44 H13         46.9941    77.9805    19.3231 H            1 FMN250   0.0000
    45 H3'         47.1337    76.6674    16.9494 H            1 FMN250   0.0000
    46 H15         47.1750    74.5912    16.4453 H            1 FMN250   0.0000
    47 H4'         48.2544    75.4011    19.2996 H            1 FMN250   0.0000
    48 H17         49.0419    77.7195    17.9624 H            1 FMN250   0.0000
    49 H5'1        49.0320    74.2583    17.3267 H            1 FMN250   0.0000
    50 H5'2        50.2524    74.9768    18.1396 H            1 FMN250   0.0000
@<TRIPOS>BOND
     1    1    2       1
     2    1   18       2
     3    2    3       2
     4    2    4       1
     5    4    5       1
     6    5    6       2
     7    5    7       1
     8    7    8       2
     9    7   18       1
    10    8    9       1
    11    9   10      ar
    12    9   16      ar
    13   10   11      ar
    14   11   12       1
    15   11   13      ar
    16   13   14       1
    17   13   15      ar
    18   15   16      ar
    19   16   17       1
    20   17   18       1
    21   17   19       1
    22   19   20       1
    23   20   21       1
    24   20   22       1
    25   22   23       1
    26   22   24       1
    27   24   25       1
    28   24   26       1
    29   26   27       1
    30   27   28       1
    31   28   29      ar
    32   28   30      ar
    33   28   31      ar
    34    4   32       1
    35   10   33       1
    36   12   34       1
    37   12   35       1
    38   12   36       1
    39   14   37       1
    40   14   38       1
    41   14   39       1
    42   15   40       1
    43   19   41       1
    44   19   42       1
    45   20   43       1
    46   21   44       1
    47   22   45       1
    48   23   46       1
    49   24   47       1
    50   25   48       1
    51   26   49       1
    52   26   50       1
@<TRIPOS>SUBSTRUCTURE
     1 FMN250      1 GROUP             4 B     FMN     0 **** FMN B 250
