@<TRIPOS>MOLECULE
3cht_4NB_1_ligand
   16    16     1     0     0
SMALL
NO_CHARGES


@<TRIPOS>ATOM
     1 C            4.4190    -2.3840    -3.3040 C.2          1 4NB502   0.0000
     2 O1           4.0930    -3.4900    -2.8530 O.co2        1 4NB502   0.0000
     3 O2           3.7280    -1.3500    -3.1190 O.co2        1 4NB502  -1.0000
     4 C1           5.6700    -2.3050    -4.1190 C.ar         1 4NB502   0.0000
     5 C2           5.7980    -1.2750    -5.0510 C.ar         1 4NB502   0.0000
     6 C3           6.9470    -1.1870    -5.8220 C.ar         1 4NB502   0.0000
     7 C4           7.9590    -2.1260    -5.6560 C.ar         1 4NB502   0.0000
     8 C5           7.8310    -3.1590    -4.7290 C.ar         1 4NB502   0.0000
     9 C6           6.6810    -3.2520    -3.9570 C.ar         1 4NB502   0.0000
    10 N            9.0980    -2.0070    -6.4490 N.2          1 4NB502   1.0000
    11 O1'          9.6010    -3.0180    -6.9310 O.co2        1 4NB502   0.0000
    12 O2'          9.5520    -0.8820    -6.6680 O.co2        1 4NB502  -1.0000
    13 H1           5.0651    -0.6038    -5.1624 H            1 4NB502   0.0000
    14 H2           7.0473    -0.4527    -6.4934 H            1 4NB502   0.0000
    15 H3           8.5643    -3.8302    -4.6205 H            1 4NB502   0.0000
    16 H4           6.5785    -3.9909    -3.2911 H            1 4NB502   0.0000
@<TRIPOS>BOND
     1    1    2      ar
     2    1    3      ar
     3    1    4       1
     4    4    5      ar
     5    4    9      ar
     6    5    6      ar
     7    6    7      ar
     8    7    8      ar
     9    7   10       1
    10    8    9      ar
    11   10   11      ar
    12   10   12      ar
    13    9   16       1
    14    5   13       1
    15    6   14       1
    16    8   15       1
@<TRIPOS>SUBSTRUCTURE
     1 4NB502      1 GROUP             4 A     4NB     0 **** 4NB A 502
