@<TRIPOS>MOLECULE
4dk8_0KT_2_ligand
   55    57     1     0     0
SMALL
NO_CHARGES


@<TRIPOS>ATOM
     1 C1          34.6730    99.1890    44.4320 C.ar         1 0KT501   0.0000
     2 C2          34.1120    98.0020    44.9930 C.ar         1 0KT501   0.0000
     3 C3          35.8940    99.6620    44.9820 C.ar         1 0KT501   0.0000
     4 C4          34.7300    97.3370    46.0530 C.ar         1 0KT501   0.0000
     5 C5          36.5190    98.9930    46.0450 C.ar         1 0KT501   0.0000
     6 C6          35.9420    97.8180    46.5940 C.ar         1 0KT501   0.0000
     7 N1          36.4890    97.0960    47.6880 N.pl3        1 0KT501   0.0000
     8 S2          36.9170    97.8860    49.2130 S.o2         1 0KT501   0.0000
     9 O4          37.3650    96.8120    50.0540 O.2          1 0KT501   0.0000
    10 O5          35.7200    98.6050    49.6170 O.2          1 0KT501   0.0000
    11 C8          38.2960    99.0150    49.1060 C.ar         1 0KT501   0.0000
    12 C9          38.0790   100.4080    48.9960 C.ar         1 0KT501   0.0000
    13 C10         39.6200    98.4960    49.1400 C.ar         1 0KT501   0.0000
    14 C11         40.7230    99.3740    49.0640 C.ar         1 0KT501   0.0000
    15 C12         39.1890   101.2860    48.9190 C.ar         1 0KT501   0.0000
    16 C13         40.5080   100.7700    48.9530 C.ar         1 0KT501   0.0000
    17 C7          37.5970    96.3050    47.0950 C.3          1 0KT501   0.0000
    18 C18         33.9930    99.9380    43.2830 C.3          1 0KT501   0.0000
    19 C19         32.5670   100.3650    43.7420 C.2          1 0KT501   0.0000
    20 C20         34.0070    99.0270    41.9510 C.3          1 0KT501   0.0000
    21 F7          33.4400    99.6570    40.9310 F            1 0KT501   0.0000
    22 F9          33.3410    97.8810    42.0900 F            1 0KT501   0.0000
    23 F8          35.2430    98.6950    41.6040 F            1 0KT501   0.0000
    24 O1          34.7310   101.1000    42.9380 O.3          1 0KT501   0.0000
    25 C14         31.3210    99.9460    43.2250 C.2          1 0KT501   0.0000
    26 N2          32.3060   101.2420    44.7690 N.pl3        1 0KT501   0.0000
    27 C16         30.9520   101.3620    44.8820 C.2          1 0KT501   0.0000
    28 C17         30.3170   100.5720    43.9400 C.2          1 0KT501   0.0000
    29 C15         33.2320   101.9880    45.6650 C.3          1 0KT501   0.0000
    30 C21         33.4110   103.4380    45.1930 C.3          1 0KT501   0.0000
    31 O2          34.1320   103.5430    43.9780 O.3          1 0KT501   0.0000
    32 C23         34.9070   104.7200    43.9120 C.3          1 0KT501   0.0000
    33 H1          33.2585    97.6396    44.6186 H            1 0KT501   0.0000
    34 H2          36.3157   100.4866    44.6048 H            1 0KT501   0.0000
    35 H3          34.3106    96.5124    46.4327 H            1 0KT501   0.0000
    36 H4          37.3767    99.3463    46.4185 H            1 0KT501   0.0000
    37 H5          37.1477   100.7716    48.9727 H            1 0KT501   0.0000
    38 H6          39.7694    97.5103    49.2177 H            1 0KT501   0.0000
    39 H7          41.6545    99.0112    49.0885 H            1 0KT501   0.0000
    40 H8          39.0408   102.2718    48.8405 H            1 0KT501   0.0000
    41 H9          41.2888   101.3924    48.8985 H            1 0KT501   0.0000
    42 H10         38.0387    95.7624    47.8094 H            1 0KT501   0.0000
    43 H11         37.2320    95.6955    46.3912 H            1 0KT501   0.0000
    44 H12         38.2665    96.9244    46.6850 H            1 0KT501   0.0000
    45 H13         34.4051   101.8749    43.4796 H            1 0KT501   0.0000
    46 H14         31.1877    99.3048    42.4693 H            1 0KT501   0.0000
    47 H15         30.4842   101.9394    45.5512 H            1 0KT501   0.0000
    48 H16         29.3312   100.4738    43.8039 H            1 0KT501   0.0000
    49 H17         34.1224   101.5328    45.6662 H            1 0KT501   0.0000
    50 H18         32.8577   101.9904    46.5923 H            1 0KT501   0.0000
    51 H19         33.9044   103.9442    45.9004 H            1 0KT501   0.0000
    52 H20         32.5065   103.8439    45.0622 H            1 0KT501   0.0000
    53 H21         35.3954   104.7490    43.0399 H            1 0KT501   0.0000
    54 H22         34.3085   105.5177    43.9856 H            1 0KT501   0.0000
    55 H23         35.5664   104.7275    44.6638 H            1 0KT501   0.0000
@<TRIPOS>BOND
     1    1    2      ar
     2    1    3      ar
     3    1   18       1
     4    2    4      ar
     5    3    5      ar
     6    4    6      ar
     7    5    6      ar
     8    6    7       1
     9    7    8       1
    10    7   17       1
    11    8    9       2
    12    8   10       2
    13    8   11       1
    14   11   12      ar
    15   11   13      ar
    16   12   15      ar
    17   13   14      ar
    18   14   16      ar
    19   15   16      ar
    20   18   19       1
    21   18   20       1
    22   18   24       1
    23   19   25       2
    24   19   26       1
    25   20   21       1
    26   20   22       1
    27   20   23       1
    28   25   28       1
    29   26   27       1
    30   26   29       1
    31   27   28       2
    32   29   30       1
    33   30   31       1
    34   31   32       1
    35    2   33       1
    36    3   34       1
    37    4   35       1
    38    5   36       1
    39   12   37       1
    40   13   38       1
    41   14   39       1
    42   15   40       1
    43   16   41       1
    44   17   42       1
    45   17   43       1
    46   17   44       1
    47   24   45       1
    48   25   46       1
    49   27   47       1
    50   28   48       1
    51   29   49       1
    52   29   50       1
    53   30   51       1
    54   30   52       1
    55   32   53       1
    56   32   54       1
    57   32   55       1
@<TRIPOS>SUBSTRUCTURE
     1 0KT501      1 GROUP             4 C     0KT     0 **** 0KT C 501
