@<TRIPOS>MOLECULE
5fpo_10L_1_ligand
   17    18     1     0     0
SMALL
NO_CHARGES


@<TRIPOS>ATOM
     1 N3          28.5190    16.8420    10.7440 N.pl3        1 10L1310   0.0000
     2 C3          28.1590    18.0330    10.1740 C.2          1 10L1310   0.0000
     3 C2          28.3970    19.2490    10.8400 C.2          1 10L1310   0.0000
     4 C4          27.5580    18.0590     8.9120 C.2          1 10L1310   0.0000
     5 C5          27.1880    19.2570     8.3270 C.2          1 10L1310   0.0000
     6 C6          27.4300    20.4570     8.9780 C.2          1 10L1310   0.0000
     7 C1          28.0420    20.4590    10.2490 C.2          1 10L1310   0.0000
     8 C1'         28.3990    21.4240    11.1500 C.2          1 10L1310   0.0000
     9 N1'         28.9440    20.9150    12.2470 N.pl3        1 10L1310   0.0000
    10 N9          28.9390    19.5680    12.0490 N.2          1 10L1310   0.0000
    11 H1          28.3448    15.9838    10.2612 H            1 10L1310   0.0000
    12 H2          28.9562    16.8300    11.6433 H            1 10L1310   0.0000
    13 H3          27.3934    17.2007     8.4259 H            1 10L1310   0.0000
    14 H4          26.7442    19.2574     7.4309 H            1 10L1310   0.0000
    15 H5          27.1707    21.3211     8.5465 H            1 10L1310   0.0000
    16 H1'         28.2643    22.4033    10.9988 H            1 10L1310   0.0000
    17 H7          29.2843    21.4121    13.0452 H            1 10L1310   0.0000
@<TRIPOS>BOND
     1    1    2       1
     2    2    3       1
     3    2    4       2
     4    3    7       1
     5    3   10       2
     6    4    5       1
     7    5    6       2
     8    6    7       1
     9    7    8       2
    10    8    9       1
    11    9   10       1
    12    1   11       1
    13    1   12       1
    14    4   13       1
    15    5   14       1
    16    6   15       1
    17    8   16       1
    18    9   17       1
@<TRIPOS>SUBSTRUCTURE
     1 10L1310     1 GROUP             4 A     10L     0 **** 10L A1310
