@<TRIPOS>MOLECULE
4hh0_FMN_2_ligand
   50    52     1     0     0
SMALL
NO_CHARGES


@<TRIPOS>ATOM
     1 N1           7.3140    18.0800   231.1190 N.2          1 FMN501   0.0000
     2 C2           7.5260    17.2480   232.1900 C.2          1 FMN501   0.0000
     3 O2           7.3290    16.0430   232.0720 O.2          1 FMN501   0.0000
     4 N3           7.9680    17.7580   233.3890 N.pl3        1 FMN501   0.0000
     5 C4           8.2060    19.1070   233.5220 C.2          1 FMN501   0.0000
     6 O4           8.5350    19.5500   234.6210 O.2          1 FMN501   0.0000
     7 C4A          8.0170    19.9530   232.4310 C.2          1 FMN501   0.0000
     8 N5           8.1870    21.3150   232.5630 N.2          1 FMN501   0.0000
     9 C5A          7.9160    22.1520   231.5060 C.ar         1 FMN501   0.0000
    10 C6           8.0380    23.5280   231.6600 C.ar         1 FMN501   0.0000
    11 C7           7.7670    24.3710   230.5840 C.ar         1 FMN501   0.0000
    12 C7M          7.9090    25.8550   230.7420 C.3          1 FMN501   0.0000
    13 C8           7.3750    23.8350   229.3580 C.ar         1 FMN501   0.0000
    14 C8M          7.0760    24.7350   228.1980 C.3          1 FMN501   0.0000
    15 C9           7.2300    22.4610   229.2130 C.ar         1 FMN501   0.0000
    16 C9A          7.4670    21.6230   230.2970 C.ar         1 FMN501   0.0000
    17 N10          7.3160    20.2570   230.1500 N.pl3        1 FMN501   0.0000
    18 C10          7.5740    19.4260   231.2230 C.2          1 FMN501   0.0000
    19 C1'          6.6030    19.7210   228.9410 C.3          1 FMN501   0.0000
    20 C2'          7.5270    18.9760   227.9860 C.3          1 FMN501   0.0000
    21 O2'          8.2660    19.9140   227.2410 O.3          1 FMN501   0.0000
    22 C3'          6.7040    18.1160   227.0310 C.3          1 FMN501   0.0000
    23 O3'          5.4470    18.7310   226.8510 O.3          1 FMN501   0.0000
    24 C4'          6.4820    16.6910   227.5410 C.3          1 FMN501   0.0000
    25 O4'          7.6010    16.2210   228.2600 O.3          1 FMN501   0.0000
    26 C5'          6.2200    15.7420   226.3780 C.3          1 FMN501   0.0000
    27 O5'          5.1920    14.8380   226.7220 O.3          1 FMN501   0.0000
    28 P            5.4180    13.2490   226.5760 P.3          1 FMN501   0.0000
    29 O1P          5.7180    12.9350   225.1300 O.co2        1 FMN501   0.0000
    30 O2P          6.5770    12.8000   227.4360 O.co2        1 FMN501  -1.0000
    31 O3P          4.1630    12.5280   227.0090 O.co2        1 FMN501  -1.0000
    32 H1           8.1168    17.1466   234.1662 H            1 FMN501   0.0000
    33 H2           8.3192    23.9116   232.5397 H            1 FMN501   0.0000
    34 H7M1         7.6776    26.3057   229.8798 H            1 FMN501   0.0000
    35 H7M2         7.2918    26.1742   231.4612 H            1 FMN501   0.0000
    36 H7M3         8.8523    26.0750   230.9904 H            1 FMN501   0.0000
    37 H8M1         6.8125    24.1829   227.4070 H            1 FMN501   0.0000
    38 H8M2         6.3263    25.3513   228.4389 H            1 FMN501   0.0000
    39 H8M3         7.8896    25.2715   227.9739 H            1 FMN501   0.0000
    40 H9           6.9560    22.0758   228.3318 H            1 FMN501   0.0000
    41 H1'1         6.1881    20.4871   228.4501 H            1 FMN501   0.0000
    42 H1'2         5.8867    19.0933   229.2458 H            1 FMN501   0.0000
    43 H2'          8.1514    18.3948   228.5079 H            1 FMN501   0.0000
    44 H13          7.6396    20.4946   226.7209 H            1 FMN501   0.0000
    45 H3'          7.1726    18.0741   226.1486 H            1 FMN501   0.0000
    46 H15          4.8928    18.1803   226.2268 H            1 FMN501   0.0000
    47 H4'          5.6857    16.6862   228.1459 H            1 FMN501   0.0000
    48 H17          7.4971    16.4527   229.2272 H            1 FMN501   0.0000
    49 H5'1         7.0550    15.2322   226.1707 H            1 FMN501   0.0000
    50 H5'2         5.9434    16.2695   225.5747 H            1 FMN501   0.0000
@<TRIPOS>BOND
     1    1    2       1
     2    1   18       2
     3    2    3       2
     4    2    4       1
     5    4    5       1
     6    5    6       2
     7    5    7       1
     8    7    8       2
     9    7   18       1
    10    8    9       1
    11    9   10      ar
    12    9   16      ar
    13   10   11      ar
    14   11   12       1
    15   11   13      ar
    16   13   14       1
    17   13   15      ar
    18   15   16      ar
    19   16   17       1
    20   17   18       1
    21   17   19       1
    22   19   20       1
    23   20   21       1
    24   20   22       1
    25   22   23       1
    26   22   24       1
    27   24   25       1
    28   24   26       1
    29   26   27       1
    30   27   28       1
    31   28   29      ar
    32   28   30      ar
    33   28   31      ar
    34    4   32       1
    35   10   33       1
    36   12   34       1
    37   12   35       1
    38   12   36       1
    39   14   37       1
    40   14   38       1
    41   14   39       1
    42   15   40       1
    43   19   41       1
    44   19   42       1
    45   20   43       1
    46   21   44       1
    47   22   45       1
    48   23   46       1
    49   24   47       1
    50   25   48       1
    51   26   49       1
    52   26   50       1
@<TRIPOS>SUBSTRUCTURE
     1 FMN501      1 GROUP             4 B     FMN     0 **** FMN B 501
