@<TRIPOS>MOLECULE
1qr0_COA_1_ligand
   80    82     1     0     0
SMALL
NO_CHARGES


@<TRIPOS>ATOM
     1 N1A         20.7770     1.4130    74.4980 N.ar         1 COA300   0.0000
     2 C2A         22.1010     1.0440    74.3110 C.ar         1 COA300   0.0000
     3 N3A         22.5230    -0.1240    73.7270 N.ar         1 COA300   0.0000
     4 C4A         21.4290    -0.9780    73.2960 C.ar         1 COA300   0.0000
     5 C5A         20.0390    -0.7150    73.4180 C.ar         1 COA300   0.0000
     6 C6A         19.7140     0.5610    74.0680 C.ar         1 COA300   0.0000
     7 N6A         18.4520     0.9590    74.2700 N.pl3        1 COA300   0.0000
     8 N7A         19.2940    -1.7230    72.9110 N.2          1 COA300   0.0000
     9 C8A         20.1910    -2.5900    72.4670 C.2          1 COA300   0.0000
    10 N9A         21.5330    -2.1920    72.6720 N.pl3        1 COA300   0.0000
    11 C1B         22.8650    -2.8450    72.3210 C.3          1 COA300   0.0000
    12 C2B         22.7830    -4.3430    72.2080 C.3          1 COA300   0.0000
    13 O2B         23.8530    -5.0990    72.8600 O.3          1 COA300   0.0000
    14 C3B         22.6040    -4.6850    70.7020 C.3          1 COA300   0.0000
    15 O3B         23.4390    -5.8040    70.3620 O.3          1 COA300   0.0000
    16 P3B         22.3420    -7.0830    69.7800 P.3          1 COA300   0.0000
    17 O7A         23.1600    -8.0660    68.9930 O.co2        1 COA300   0.0000
    18 O8A         21.7580    -7.8240    71.0170 O.co2        1 COA300  -1.0000
    19 O9A         21.2700    -6.3620    69.0350 O.co2        1 COA300  -1.0000
    20 C4B         23.3600    -3.6010    70.3030 C.3          1 COA300   0.0000
    21 O4B         23.2450    -2.3310    71.0410 O.3          1 COA300   0.0000
    22 C5B         23.2240    -3.1970    68.8570 C.3          1 COA300   0.0000
    23 O5B         24.0000    -1.9900    68.4230 O.3          1 COA300   0.0000
    24 P1A         24.4280    -1.4350    67.0600 P.3          1 COA300   0.0000
    25 O1A         25.2330    -2.5750    66.4660 O.co2        1 COA300   0.0000
    26 O2A         25.1260    -0.1520    67.2290 O.co2        1 COA300  -1.0000
    27 O3A         23.0320    -1.4250    66.3900 O.3          1 COA300   0.0000
    28 P2A         21.9890    -0.3590    65.9840 P.3          1 COA300   0.0000
    29 O4A         22.4710     1.0660    65.5600 O.co2        1 COA300   0.0000
    30 O5A         21.2250    -1.2440    64.9790 O.co2        1 COA300  -1.0000
    31 O6A         20.8900    -0.0310    66.9560 O.3          1 COA300   0.0000
    32 CBP         19.4940     0.9790    68.8390 C.3          1 COA300   0.0000
    33 CCP         20.8010     0.5230    68.2260 C.3          1 COA300   0.0000
    34 CDP         18.5900     1.6110    67.7650 C.3          1 COA300   0.0000
    35 CEP         19.8680     2.0700    69.8440 C.3          1 COA300   0.0000
    36 CAP         18.7570    -0.2350    69.5120 C.3          1 COA300   0.0000
    37 OAP         19.6240    -0.9920    70.2670 O.3          1 COA300   0.0000
    38 C9P         17.5030     0.0190    70.4450 C.2          1 COA300   0.0000
    39 O9P         17.0930     1.1120    70.7370 O.2          1 COA300   0.0000
    40 N8P         16.9580    -1.2170    71.1200 N.am         1 COA300   0.0000
    41 C7P         15.9100    -1.1500    72.0960 C.3          1 COA300   0.0000
    42 C6P         15.0600    -2.3880    72.0450 C.3          1 COA300   0.0000
    43 C5P         13.9650    -2.5190    73.0800 C.2          1 COA300   0.0000
    44 O5P         13.9720    -1.9050    74.1780 O.2          1 COA300   0.0000
    45 N4P         12.8780    -3.3970    72.8160 N.am         1 COA300   0.0000
    46 C3P         12.6640    -4.1240    71.6370 C.3          1 COA300   0.0000
    47 C2P         11.1180    -4.2600    71.4480 C.3          1 COA300   0.0000
    48 S1P         10.5790    -4.9150    69.9500 S.3          1 COA300   0.0000
    49 H2A         22.8047     1.6803    74.6272 H            1 COA300   0.0000
    50 H6A1        17.6919     0.3789    73.9773 H            1 COA300   0.0000
    51 H6A2        18.2694     1.8364    74.7136 H            1 COA300   0.0000
    52 H8A         19.9414    -3.4516    72.0250 H            1 COA300   0.0000
    53 H1B         23.5529    -2.5953    73.0025 H            1 COA300   0.0000
    54 H2B         21.9328    -4.6126    72.6602 H            1 COA300   0.0000
    55 H7          24.1863    -4.5887    73.6528 H            1 COA300   0.0000
    56 H3B         21.6632    -4.7164    70.3644 H            1 COA300   0.0000
    57 H4B         24.3123    -3.8864    70.4112 H            1 COA300   0.0000
    58 H5B1        22.2564    -3.0149    68.6823 H            1 COA300   0.0000
    59 H5B2        23.5244    -3.9688    68.2965 H            1 COA300   0.0000
    60 HCP1        21.3962     1.3265    68.2180 H            1 COA300   0.0000
    61 HCP2        21.1741    -0.1620    68.8517 H            1 COA300   0.0000
    62 HDP1        17.7316     1.9070    68.1839 H            1 COA300   0.0000
    63 HDP2        19.0534     2.3999    67.3614 H            1 COA300   0.0000
    64 HDP3        18.3978     0.9366    67.0521 H            1 COA300   0.0000
    65 HEP1        19.0396     2.4143    70.2859 H            1 COA300   0.0000
    66 HEP2        20.4815     1.6896    70.5360 H            1 COA300   0.0000
    67 HEP3        20.3274     2.8193    69.3670 H            1 COA300   0.0000
    68 HAP         18.4417    -0.8233    68.7674 H            1 COA300   0.0000
    69 H21         19.3154    -1.0029    71.2181 H            1 COA300   0.0000
    70 H8P         17.3397    -2.1093    70.8789 H            1 COA300   0.0000
    71 H7P1        15.3383    -0.3509    71.9100 H            1 COA300   0.0000
    72 H7P2        16.3141    -1.0661    73.0069 H            1 COA300   0.0000
    73 H6P1        15.6683    -3.1748    72.1496 H            1 COA300   0.0000
    74 H6P2        14.6273    -2.4187    71.1440 H            1 COA300   0.0000
    75 H4P         12.1999    -3.5064    73.5427 H            1 COA300   0.0000
    76 H3P1        13.0803    -5.0300    71.7134 H            1 COA300   0.0000
    77 H3P2        13.0624    -3.6387    70.8587 H            1 COA300   0.0000
    78 H2P1        10.7196    -3.3475    71.5410 H            1 COA300   0.0000
    79 H2P2        10.7738    -4.8500    72.1784 H            1 COA300   0.0000
    80 H1P          9.5798    -4.9539    69.9435 H            1 COA300   0.0000
@<TRIPOS>BOND
     1    1    2      ar
     2    1    6      ar
     3    2    3      ar
     4    3    4      ar
     5    4    5      ar
     6    4   10       1
     7    5    6      ar
     8    5    8       1
     9    6    7       1
    10    8    9       2
    11    9   10       1
    12   10   11       1
    13   11   12       1
    14   11   21       1
    15   12   13       1
    16   12   14       1
    17   14   15       1
    18   14   20       1
    19   15   16       1
    20   16   17      ar
    21   16   18      ar
    22   16   19      ar
    23   20   21       1
    24   20   22       1
    25   22   23       1
    26   23   24       1
    27   24   25      ar
    28   24   26      ar
    29   24   27       1
    30   27   28       1
    31   28   29      ar
    32   28   30      ar
    33   28   31       1
    34   31   33       1
    35   32   33       1
    36   32   34       1
    37   32   35       1
    38   32   36       1
    39   36   37       1
    40   36   38       1
    41   38   39       2
    42   38   40      am
    43   40   41       1
    44   41   42       1
    45   42   43       1
    46   43   44       2
    47   43   45      am
    48   45   46       1
    49   46   47       1
    50   47   48       1
    51    2   49       1
    52    7   50       1
    53    7   51       1
    54    9   52       1
    55   11   53       1
    56   12   54       1
    57   13   55       1
    58   14   56       1
    59   48   80       1
    60   47   79       1
    61   20   57       1
    62   22   58       1
    63   22   59       1
    64   47   78       1
    65   46   77       1
    66   33   60       1
    67   33   61       1
    68   34   62       1
    69   34   63       1
    70   34   64       1
    71   35   65       1
    72   35   66       1
    73   35   67       1
    74   36   68       1
    75   37   69       1
    76   40   70       1
    77   41   71       1
    78   41   72       1
    79   42   73       1
    80   42   74       1
    81   45   75       1
    82   46   76       1
@<TRIPOS>SUBSTRUCTURE
     1 COA300      1 GROUP             4 A     COA     0 **** COA A 300
