@<TRIPOS>MOLECULE
2wp9_CBE_2_ligand
   29    30     1     0     0
SMALL
NO_CHARGES


@<TRIPOS>ATOM
     1 C1          45.9500    -9.4250   -37.1890 C.3          1 CBE1130   0.0000
     2 C2          47.1000    -9.1870   -36.2340 C.2          1 CBE1130   0.0000
     3 C3          47.5130    -7.8700   -35.9740 C.2          1 CBE1130   0.0000
     4 S4          48.8020    -7.5160   -34.8670 S.3          1 CBE1130   0.0000
     5 C5          48.9860    -9.1420   -34.0450 C.3          1 CBE1130   0.0000
     6 C6          49.0280   -10.2200   -35.1120 C.3          1 CBE1130   0.0000
     7 O7          47.6920   -10.3110   -35.6730 O.3          1 CBE1130   0.0000
     8 C8          46.8010    -6.6320   -36.4950 C.2          1 CBE1130   0.0000
     9 O9          46.6520    -6.4350   -37.6980 O.2          1 CBE1130   0.0000
    10 N10         46.8240    -5.6490   -35.5960 N.am         1 CBE1130   0.0000
    11 C11         46.3650    -4.4260   -35.9140 C.ar         1 CBE1130   0.0000
    12 C12         45.8840    -3.5730   -34.8970 C.ar         1 CBE1130   0.0000
    13 C13         45.3910    -2.3140   -35.2420 C.ar         1 CBE1130   0.0000
    14 C14         45.4110    -1.8960   -36.5820 C.ar         1 CBE1130   0.0000
    15 C15         45.9160    -2.7450   -37.5800 C.ar         1 CBE1130   0.0000
    16 C16         46.3800    -4.0240   -37.2540 C.ar         1 CBE1130   0.0000
    17 H1          45.7793   -10.4072   -37.2670 H            1 CBE1130   0.0000
    18 H2          45.1294    -8.9705   -36.8425 H            1 CBE1130   0.0000
    19 H3          46.1815    -9.0545   -38.0885 H            1 CBE1130   0.0000
    20 H4          48.2096    -9.3013   -33.4352 H            1 CBE1130   0.0000
    21 H5          49.8343    -9.1582   -33.5158 H            1 CBE1130   0.0000
    22 H6          49.2908   -11.0953   -34.7062 H            1 CBE1130   0.0000
    23 H7          49.6842    -9.9727   -35.8250 H            1 CBE1130   0.0000
    24 H8          47.1847    -5.8218   -34.6795 H            1 CBE1130   0.0000
    25 H9          45.8965    -3.8674   -33.9414 H            1 CBE1130   0.0000
    26 H10         45.0236    -1.7097   -34.5350 H            1 CBE1130   0.0000
    27 H11         45.0644    -0.9905   -36.8267 H            1 CBE1130   0.0000
    28 H12         45.9442    -2.4334   -38.5298 H            1 CBE1130   0.0000
    29 H13         46.7165    -4.6400   -37.9663 H            1 CBE1130   0.0000
@<TRIPOS>BOND
     1    1    2       1
     2    2    3       2
     3    2    7       1
     4    3    4       1
     5    3    8       1
     6    4    5       1
     7    5    6       1
     8    6    7       1
     9    8    9       2
    10    8   10      am
    11   10   11       1
    12   11   12      ar
    13   11   16      ar
    14   12   13      ar
    15   13   14      ar
    16   14   15      ar
    17   15   16      ar
    18    1   17       1
    19    1   18       1
    20    1   19       1
    21    5   20       1
    22    5   21       1
    23    6   22       1
    24    6   23       1
    25   10   24       1
    26   12   25       1
    27   13   26       1
    28   14   27       1
    29   15   28       1
    30   16   29       1
@<TRIPOS>SUBSTRUCTURE
     1 CBE1130     1 GROUP             4 C     CBE     0 **** CBE C1130
