@<TRIPOS>MOLECULE
1umc_TDP_1_ligand
   43    44     1     0     0
SMALL
NO_CHARGES


@<TRIPOS>ATOM
     1 N1'         33.7730    31.4030    63.7960 N.ar         1 TDP1402   1.0000
     2 C2'         35.0340    31.8780    64.1320 C.ar         1 TDP1402   0.0000
     3 C2A         35.2180    32.8210    65.2840 C.3          1 TDP1402   0.0000
     4 N3'         36.1170    31.5110    63.4450 N.ar         1 TDP1402   0.0000
     5 C4'         35.9950    30.6330    62.3630 C.ar         1 TDP1402   0.0000
     6 N4'         37.1230    30.3210    61.7380 N.pl3        1 TDP1402   0.0000
     7 C5'         34.7000    30.1190    61.9790 C.ar         1 TDP1402   0.0000
     8 C6'         33.6490    30.5460    62.7360 C.ar         1 TDP1402   0.0000
     9 C35         34.5050    29.1630    60.8020 C.3          1 TDP1402   0.0000
    10 N3          34.7000    29.9290    59.4890 N.2          1 TDP1402   1.0000
    11 C2          35.8380    29.7810    58.8390 C.2          1 TDP1402   0.0000
    12 S1          35.9830    30.6550    57.4340 S.3          1 TDP1402   0.0000
    13 C5          34.4090    31.3140    57.6600 C.2          1 TDP1402   0.0000
    14 C4          33.8390    30.8110    58.8290 C.2          1 TDP1402   0.0000
    15 C4A         32.4860    31.1640    59.3290 C.3          1 TDP1402   0.0000
    16 C5A         33.8880    32.2830    56.6490 C.3          1 TDP1402   0.0000
    17 C5B         34.4840    33.6710    56.7330 C.3          1 TDP1402   0.0000
    18 O5G         34.1500    34.4660    55.6250 O.3          1 TDP1402   0.0000
    19 P1          34.6850    35.8520    55.0870 P.3          1 TDP1402   0.0000
    20 O11         35.9100    35.3740    54.2330 O.3          1 TDP1402   0.0000
    21 O12         33.7240    36.5250    54.2210 O.co2        1 TDP1402   0.0000
    22 O13         35.2130    36.5670    56.2860 O.co2        1 TDP1402  -1.0000
    23 P2          36.0630    34.5600    52.8510 P.3          1 TDP1402   0.0000
    24 O21         37.0930    35.3050    52.0070 O.co2        1 TDP1402   0.0000
    25 O22         36.3230    33.1910    53.2710 O.co2        1 TDP1402  -1.0000
    26 O23         34.7000    34.7270    52.2200 O.co2        1 TDP1402  -1.0000
    27 H2A1        36.1867    33.0526    65.3738 H            1 TDP1402   0.0000
    28 H2A2        34.6899    33.6542    65.1203 H            1 TDP1402   0.0000
    29 H2A3        34.9001    32.3848    66.1259 H            1 TDP1402   0.0000
    30 H4'1        37.1055    29.6980    60.9560 H            1 TDP1402   0.0000
    31 H4'2        37.9907    30.7089    62.0489 H            1 TDP1402   0.0000
    32 H6'         32.7350    30.2138    62.5032 H            1 TDP1402   0.0000
    33 H7          33.5814    28.7808    60.8317 H            1 TDP1402   0.0000
    34 H8          35.1743    28.4222    60.8590 H            1 TDP1402   0.0000
    35 H9          36.5664    29.1814    59.1706 H            1 TDP1402   0.0000
    36 H4A1        32.0548    31.8082    58.6973 H            1 TDP1402   0.0000
    37 H4A2        31.9282    30.3366    59.3937 H            1 TDP1402   0.0000
    38 H4A3        32.5639    31.5850    60.2327 H            1 TDP1402   0.0000
    39 H5A1        32.8990    32.3612    56.7742 H            1 TDP1402   0.0000
    40 H5A2        34.0808    31.9164    55.7388 H            1 TDP1402   0.0000
    41 H5B1        35.4796    33.5904    56.7817 H            1 TDP1402   0.0000
    42 H5B2        34.1447    34.1164    57.5615 H            1 TDP1402   0.0000
    43 H1'         32.9685    31.6826    64.3201 H            1 TDP1402   0.0000
@<TRIPOS>BOND
     1    1    2      ar
     2    1    8      ar
     3    2    3       1
     4    2    4      ar
     5    4    5      ar
     6    5    6       1
     7    5    7      ar
     8    7    8      ar
     9    7    9       1
    10    9   10       1
    11   10   11       2
    12   10   14       1
    13   11   12       1
    14   12   13       1
    15   13   14       2
    16   13   16       1
    17   14   15       1
    18   16   17       1
    19   17   18       1
    20   18   19       1
    21   19   20       1
    22   19   21      ar
    23   19   22      ar
    24   20   23       1
    25   23   24      ar
    26   23   25      ar
    27   23   26      ar
    28    3   27       1
    29    3   28       1
    30    3   29       1
    31    6   30       1
    32    6   31       1
    33    8   32       1
    34    9   33       1
    35    9   34       1
    36   11   35       1
    37   15   36       1
    38   15   37       1
    39   15   38       1
    40   16   39       1
    41   16   40       1
    42   17   41       1
    43   17   42       1
    44    1   43       1
@<TRIPOS>SUBSTRUCTURE
     1 TDP1402     1 GROUP             4 A     TDP     0 **** TDP A1402
