@<TRIPOS>MOLECULE
4iao_APR_1_ligand
   57    60     1     0     0
SMALL
NO_CHARGES


@<TRIPOS>ATOM
     1 N1          97.2760    56.0860    65.9040 N.ar         1 APR602   0.0000
     2 C2          98.3340    56.5930    66.5730 C.ar         1 APR602   0.0000
     3 N3          98.4810    57.9130    66.6950 N.ar         1 APR602   0.0000
     4 C4          97.5920    58.7720    66.1630 C.ar         1 APR602   0.0000
     5 C5          96.4910    58.2710    65.4660 C.ar         1 APR602   0.0000
     6 C6          96.3510    56.8900    65.3490 C.ar         1 APR602   0.0000
     7 N6          95.2470    56.3320    64.6500 N.pl3        1 APR602   0.0000
     8 N7          95.7870    59.3460    65.0550 N.2          1 APR602   0.0000
     9 C8          96.4130    60.4610    65.4700 C.2          1 APR602   0.0000
    10 N9          97.5180    60.1120    66.1340 N.pl3        1 APR602   0.0000
    11 C1'         98.5130    60.9620    66.8220 C.3          1 APR602   0.0000
    12 C2'         99.0030    62.1520    66.1320 C.3          1 APR602   0.0000
    13 O2'        100.2000    61.8290    65.4780 O.3          1 APR602   0.0000
    14 C3'         99.2840    63.0610    67.1740 C.3          1 APR602   0.0000
    15 O3'        100.6570    63.0560    67.5200 O.3          1 APR602   0.0000
    16 O4'         97.9420    61.4180    68.0220 O.3          1 APR602   0.0000
    17 C4'         98.4690    62.6550    68.3190 C.3          1 APR602   0.0000
    18 C5'         97.3380    63.6090    68.4590 C.3          1 APR602   0.0000
    19 O5'         97.0050    64.1200    69.7120 O.3          1 APR602   0.0000
    20 PA          96.5380    65.6270    69.7890 P.3          1 APR602   0.0000
    21 O1A         95.9350    66.0360    68.4670 O.co2        1 APR602   0.0000
    22 O2A         97.6930    66.4770    70.0620 O.co2        1 APR602  -1.0000
    23 O3A         95.5080    65.7590    70.9200 O.3          1 APR602   0.0000
    24 PB          95.7360    65.0880    72.3430 P.3          1 APR602   0.0000
    25 O1B         97.2030    64.9920    72.6660 O.co2        1 APR602   0.0000
    26 O2B         95.0830    63.7330    72.3630 O.co2        1 APR602  -1.0000
    27 O5D         95.0050    65.9460    73.4440 O.3          1 APR602   0.0000
    28 C5D         95.4000    67.2530    73.7700 C.3          1 APR602   0.0000
    29 O4D         94.4490    69.4090    73.8680 O.3          1 APR602   0.0000
    30 O1D         92.9830    71.0160    73.1990 O.3          1 APR602   0.0000
    31 C1D         93.1940    69.9730    74.0720 C.3          1 APR602   0.0000
    32 O2D         91.2100    68.9500    74.7720 O.3          1 APR602   0.0000
    33 C2D         92.2680    68.8960    73.8080 C.3          1 APR602   0.0000
    34 O3D         92.4670    66.8530    74.9760 O.3          1 APR602   0.0000
    35 C3D         93.0290    67.6950    73.9640 C.3          1 APR602   0.0000
    36 C4D         94.3450    68.1320    74.3800 C.3          1 APR602   0.0000
    37 H1          99.0093    55.9767    66.9782 H            1 APR602   0.0000
    38 H2          94.5609    56.9319    64.2384 H            1 APR602   0.0000
    39 H3          95.1561    55.3394    64.5696 H            1 APR602   0.0000
    40 H4          96.1024    61.3976    65.3081 H            1 APR602   0.0000
    41 H1'         99.3012    60.3912    67.0519 H            1 APR602   0.0000
    42 H2'         98.3222    62.5172    65.4970 H            1 APR602   0.0000
    43 H7         100.9712    61.9979    66.0917 H            1 APR602   0.0000
    44 H3'         99.0184    63.9821    66.8894 H            1 APR602   0.0000
    45 H9         100.7575    63.2836    68.4885 H            1 APR602   0.0000
    46 H4'         99.0161    62.6211    69.1554 H            1 APR602   0.0000
    47 H5'1        96.5238    63.1435    68.1120 H            1 APR602   0.0000
    48 H5'2        97.5483    64.3929    67.8748 H            1 APR602   0.0000
    49 H5D1        95.7169    67.6943    72.9305 H            1 APR602   0.0000
    50 H5D2        96.1575    67.1897    74.4197 H            1 APR602   0.0000
    51 H1D         93.4864    70.8483    72.3514 H            1 APR602   0.0000
    52 H16         93.1028    70.2865    75.0172 H            1 APR602   0.0000
    53 H2D         91.1900    68.0967    75.2931 H            1 APR602   0.0000
    54 H18         91.9030    68.9642    72.8795 H            1 APR602   0.0000
    55 H3D         92.6589    65.8961    74.7579 H            1 APR602   0.0000
    56 H20         93.0847    67.2037    73.0948 H            1 APR602   0.0000
    57 H4D         94.4198    68.1400    75.3772 H            1 APR602   0.0000
@<TRIPOS>BOND
     1    1    2      ar
     2    1    6      ar
     3    2    3      ar
     4    3    4      ar
     5    4    5      ar
     6    4   10       1
     7    5    6      ar
     8    5    8       1
     9    6    7       1
    10    8    9       2
    11    9   10       1
    12   10   11       1
    13   11   12       1
    14   11   16       1
    15   12   13       1
    16   12   14       1
    17   14   15       1
    18   14   17       1
    19   16   17       1
    20   17   18       1
    21   18   19       1
    22   19   20       1
    23   20   21      ar
    24   20   22      ar
    25   20   23       1
    26   23   24       1
    27   24   25      ar
    28   24   26      ar
    29   24   27       1
    30   27   28       1
    31   28   36       1
    32   29   31       1
    33   29   36       1
    34   30   31       1
    35   31   33       1
    36   32   33       1
    37   33   35       1
    38   34   35       1
    39   35   36       1
    40    2   37       1
    41    7   38       1
    42    7   39       1
    43    9   40       1
    44   11   41       1
    45   12   42       1
    46   13   43       1
    47   14   44       1
    48   15   45       1
    49   17   46       1
    50   18   47       1
    51   18   48       1
    52   36   57       1
    53   35   56       1
    54   28   49       1
    55   28   50       1
    56   30   51       1
    57   31   52       1
    58   32   53       1
    59   33   54       1
    60   34   55       1
@<TRIPOS>SUBSTRUCTURE
     1 APR602      1 GROUP             4 A     APR     0 **** APR A 602
