@<TRIPOS>MOLECULE
5fa8_SAM_1_ligand
   50    52     1     0     0
SMALL
NO_CHARGES


@<TRIPOS>ATOM
     1 N            8.3300    14.4360    -6.7200 N.4          1 SAM301   1.0000
     2 CA           7.1230    14.2570    -5.9100 C.3          1 SAM301   0.0000
     3 C            5.9440    13.9360    -6.8150 C.2          1 SAM301   0.0000
     4 O            4.9690    13.3020    -6.3910 O.co2        1 SAM301   0.0000
     5 OXT          5.9640    14.3230    -7.9880 O.co2        1 SAM301  -1.0000
     6 CB           6.8140    15.4790    -5.0280 C.3          1 SAM301   0.0000
     7 CG           6.4440    16.7490    -5.8080 C.3          1 SAM301   0.0000
     8 SD           6.1040    18.1860    -4.7430 S.3          1 SAM301   1.0000
     9 CE           5.4870    19.3020    -6.0360 C.3          1 SAM301   0.0000
    10 C5'          7.7440    18.9380    -4.5990 C.3          1 SAM301   0.0000
    11 C4'          8.5980    18.3580    -3.4820 C.3          1 SAM301   0.0000
    12 O4'          9.8940    18.9080    -3.6100 O.3          1 SAM301   0.0000
    13 C3'          8.1280    18.7060    -2.0710 C.3          1 SAM301   0.0000
    14 O3'          8.0990    17.5090    -1.3210 O.3          1 SAM301   0.0000
    15 C2'          9.1950    19.6490    -1.5300 C.3          1 SAM301   0.0000
    16 O2'          9.4440    19.5150    -0.1440 O.3          1 SAM301   0.0000
    17 C1'         10.4100    19.2400    -2.3340 C.3          1 SAM301   0.0000
    18 N9          11.4220    20.2840    -2.5260 N.pl3        1 SAM301   0.0000
    19 C8          11.2290    21.5740    -2.9540 C.2          1 SAM301   0.0000
    20 N7          12.4380    22.1800    -3.0220 N.2          1 SAM301   0.0000
    21 C5          13.3900    21.2900    -2.6480 C.ar         1 SAM301   0.0000
    22 C6          14.7700    21.3740    -2.5350 C.ar         1 SAM301   0.0000
    23 N6          15.4310    22.4920    -2.8200 N.pl3        1 SAM301   0.0000
    24 N1          15.4790    20.2680    -2.1320 N.ar         1 SAM301   0.0000
    25 C2          14.8380    19.0890    -1.8260 C.ar         1 SAM301   0.0000
    26 N3          13.4630    19.0050    -1.9280 N.ar         1 SAM301   0.0000
    27 C4          12.7610    20.0890    -2.3420 C.ar         1 SAM301   0.0000
    28 H1           8.9422    15.0842    -6.2672 H            1 SAM301   0.0000
    29 H2           8.7944    13.5566    -6.8251 H            1 SAM301   0.0000
    30 HA           7.2706    13.4726    -5.3076 H            1 SAM301   0.0000
    31 HB1          7.6226    15.6770    -4.4740 H            1 SAM301   0.0000
    32 HB2          6.0481    15.2461    -4.4286 H            1 SAM301   0.0000
    33 HG1          5.6271    16.5588    -6.3525 H            1 SAM301   0.0000
    34 HG2          7.2038    16.9790    -6.4161 H            1 SAM301   0.0000
    35 HE1          5.2388    20.1804    -5.6276 H            1 SAM301   0.0000
    36 HE2          6.2002    19.4433    -6.7226 H            1 SAM301   0.0000
    37 HE3          4.6823    18.8968    -6.4699 H            1 SAM301   0.0000
    38 H5'1         7.6269    19.9164    -4.4288 H            1 SAM301   0.0000
    39 H5'2         8.2271    18.8057    -5.4645 H            1 SAM301   0.0000
    40 H4'          8.6465    17.3641    -3.5814 H            1 SAM301   0.0000
    41 H3'          7.2300    19.1457    -2.0864 H            1 SAM301   0.0000
    42 H15          9.0157    17.1103    -1.2939 H            1 SAM301   0.0000
    43 H2'          8.9507    20.5954    -1.7413 H            1 SAM301   0.0000
    44 H17         10.1653    18.8378     0.0011 H            1 SAM301   0.0000
    45 H1'         10.8320    18.4332    -1.9205 H            1 SAM301   0.0000
    46 H19         10.3488    21.9932    -3.1768 H            1 SAM301   0.0000
    47 H20         16.4264    22.5214    -2.7287 H            1 SAM301   0.0000
    48 H21         14.9327    23.3034    -3.1256 H            1 SAM301   0.0000
    49 H22         15.3673    18.2939    -1.5301 H            1 SAM301   0.0000
    50 H23          8.0776    14.7894    -7.6208 H            1 SAM301   0.0000
@<TRIPOS>BOND
     1    1    2       1
     2    2    3       1
     3    2    6       1
     4    3    4      ar
     5    3    5      ar
     6    6    7       1
     7    7    8       1
     8    8    9       1
     9    8   10       1
    10   10   11       1
    11   11   12       1
    12   11   13       1
    13   12   17       1
    14   13   14       1
    15   13   15       1
    16   15   16       1
    17   15   17       1
    18   17   18       1
    19   18   19       1
    20   18   27       1
    21   19   20       2
    22   20   21       1
    23   21   22      ar
    24   21   27      ar
    25   22   23       1
    26   22   24      ar
    27   24   25      ar
    28   25   26      ar
    29   26   27      ar
    30    1   28       1
    31    1   29       1
    32    2   30       1
    33    1   50       1
    34    6   31       1
    35    6   32       1
    36    7   33       1
    37    7   34       1
    38    9   35       1
    39    9   36       1
    40    9   37       1
    41   10   38       1
    42   10   39       1
    43   11   40       1
    44   13   41       1
    45   14   42       1
    46   15   43       1
    47   16   44       1
    48   17   45       1
    49   19   46       1
    50   23   47       1
    51   23   48       1
    52   25   49       1
@<TRIPOS>SUBSTRUCTURE
     1 SAM301      1 GROUP             4 A     SAM     0 **** SAM A 301
