@<TRIPOS>MOLECULE
4bz8_J38_3_ligand
   25    26     1     0     0
SMALL
NO_CHARGES


@<TRIPOS>ATOM
     1 C01         59.3510    12.8610    39.0650 C.3          1 J38700   0.0000
     2 C02         58.1400    13.6770    39.3720 C.3          1 J38700   0.0000
     3 S03         56.9420    13.2860    38.2560 S.3          1 J38700   0.0000
     4 C04         55.9540    11.9930    38.7660 C.ar         1 J38700   0.0000
     5 C05         55.2380    11.2320    37.8680 C.ar         1 J38700   0.0000
     6 C06         54.3780    10.1770    38.3330 C.ar         1 J38700   0.0000
     7 C07         54.2920     9.8570    39.7710 C.ar         1 J38700   0.0000
     8 C08         53.3320     8.8240    40.2710 C.2          1 J38700   0.0000
     9 O09         53.5070     8.2950    41.3520 O.2          1 J38700   0.0000
    10 N10         52.1030     8.5550    39.5770 N.am         1 J38700   0.0000
    11 O11         51.2130     7.7040    40.0180 O.3          1 J38700  -1.0000
    12 C12         55.0520    10.6460    40.7030 C.ar         1 J38700   0.0000
    13 C13         55.8630    11.6810    40.2580 C.ar         1 J38700   0.0000
    14 N14         56.6800    12.5280    41.2220 N.am         1 J38700   0.0000
    15 C15         57.7580    13.4820    40.8110 C.2          1 J38700   0.0000
    16 O16         58.3530    14.1120    41.6710 O.2          1 J38700   0.0000
    17 H1          60.0751    13.0800    39.7190 H            1 J38700   0.0000
    18 H2          59.1240    11.8894    39.1320 H            1 J38700   0.0000
    19 H3          59.6654    13.0667    38.1383 H            1 J38700   0.0000
    20 H4          58.3772    14.6400    39.2443 H            1 J38700   0.0000
    21 H5          55.3166    11.4141    36.8879 H            1 J38700   0.0000
    22 H6          53.8335     9.6557    37.6759 H            1 J38700   0.0000
    23 H7          51.9204     9.0387    38.7210 H            1 J38700   0.0000
    24 H8          54.9956    10.4470    41.6814 H            1 J38700   0.0000
    25 H9          56.4832    12.4415    42.1986 H            1 J38700   0.0000
@<TRIPOS>BOND
     1    1    2       1
     2    2    3       1
     3    2   15       1
     4    3    4       1
     5    4    5      ar
     6    4   13      ar
     7    5    6      ar
     8    6    7      ar
     9    7    8       1
    10    7   12      ar
    11    8    9       2
    12    8   10      am
    13   10   11       1
    14   12   13      ar
    15   13   14       1
    16   14   15      am
    17   15   16       2
    18    1   17       1
    19    1   18       1
    20    1   19       1
    21    2   20       1
    22    5   21       1
    23    6   22       1
    24   10   23       1
    25   14   25       1
    26   12   24       1
@<TRIPOS>SUBSTRUCTURE
     1 J38700      1 GROUP             4 C     J38     0 **** J38 C 700
