@<TRIPOS>MOLECULE
3hbf_MYC_1_ligand
   33    35     1     0     0
SMALL
NO_CHARGES


@<TRIPOS>ATOM
     1 C1          23.7730   -14.0680     6.1440 C.ar         1 MYC901   0.0000
     2 C2          23.7440   -12.6730     5.9330 C.ar         1 MYC901   0.0000
     3 C3          22.7830   -11.8840     6.6210 C.ar         1 MYC901   0.0000
     4 C4          21.8520   -12.5150     7.5170 C.ar         1 MYC901   0.0000
     5 C5          21.8930   -13.9120     7.7110 C.ar         1 MYC901   0.0000
     6 C6          22.8480   -14.6860     7.0320 C.ar         1 MYC901   0.0000
     7 C9          22.7060   -10.4020     6.4530 C.2          1 MYC901   0.0000
     8 C10         21.7130    -9.6770     7.2020 C.2          1 MYC901   0.0000
     9 C11         20.8470   -10.3940     8.0610 C.2          1 MYC901   0.0000
    10 C14         19.7880    -9.7470     8.9130 C.ar         1 MYC901   0.0000
    11 C15         18.9310   -10.6090     9.6570 C.ar         1 MYC901   0.0000
    12 C16         17.9370   -10.0900    10.4880 C.ar         1 MYC901   0.0000
    13 C17         17.7680    -8.6750    10.6050 C.ar         1 MYC901   0.0000
    14 C18         18.6120    -7.7970     9.8680 C.ar         1 MYC901   0.0000
    15 C19         19.6160    -8.3260     9.0300 C.ar         1 MYC901   0.0000
    16 O12         20.9450   -11.7600     8.1800 O.2          1 MYC901   0.0000
    17 O13         23.4720    -9.8110     5.7060 O.2          1 MYC901   0.0000
    18 O23         18.4570    -6.4410     9.9710 O.3          1 MYC901   0.0000
    19 O24         16.8090    -8.1600    11.4130 O.3          1 MYC901   0.0000
    20 O25         17.1550   -10.9550    11.1670 O.3          1 MYC901   0.0000
    21 O27         21.6540    -8.3330     7.0600 O.3          1 MYC901   0.0000
    22 O29         22.8870   -16.0290     7.2320 O.3          1 MYC901   0.0000
    23 O30         24.6300   -12.0890     5.0890 O.3          1 MYC901   0.0000
    24 H1          24.4496   -14.6275     5.6653 H            1 MYC901   0.0000
    25 H2          21.2427   -14.3505     8.3314 H            1 MYC901   0.0000
    26 H3          19.0435   -11.5999     9.5826 H            1 MYC901   0.0000
    27 H4          20.2107    -7.7086     8.5150 H            1 MYC901   0.0000
    28 H5          19.0526    -5.8287     9.4510 H            1 MYC901   0.0000
    29 H6          16.6981    -7.1691    11.4886 H            1 MYC901   0.0000
    30 H7          17.2955   -11.9401    11.0676 H            1 MYC901   0.0000
    31 H8          22.2909    -7.8666     6.4461 H            1 MYC901   0.0000
    32 H9          23.5667   -16.5860     6.7548 H            1 MYC901   0.0000
    33 H10         24.6046   -11.1000     4.9435 H            1 MYC901   0.0000
@<TRIPOS>BOND
     1    1    2      ar
     2    1    6      ar
     3    2    3      ar
     4    2   23       1
     5    3    4      ar
     6    3    7       1
     7    4    5      ar
     8    4   16       1
     9    5    6      ar
    10    6   22       1
    11    7    8       1
    12    7   17       2
    13    8    9       2
    14    8   21       1
    15    9   10       1
    16    9   16       1
    17   10   11      ar
    18   10   15      ar
    19   11   12      ar
    20   12   13      ar
    21   12   20       1
    22   13   14      ar
    23   13   19       1
    24   14   15      ar
    25   14   18       1
    26    1   24       1
    27    5   25       1
    28   11   26       1
    29   15   27       1
    30   18   28       1
    31   19   29       1
    32   20   30       1
    33   21   31       1
    34   22   32       1
    35   23   33       1
@<TRIPOS>SUBSTRUCTURE
     1 MYC901      1 GROUP             4 A     MYC     0 **** MYC A 901
