@<TRIPOS>MOLECULE
3d3w_NAP_2_ligand
   73    77     1     0     0
SMALL
NO_CHARGES


@<TRIPOS>ATOM
     1 PA          15.4380    13.0350   -17.7580 P.3          1 NAP1245   0.0000
     2 O1A         14.3220    13.4270   -18.6230 O.co2        1 NAP1245   0.0000
     3 O2A         16.3740    13.9340   -17.0530 O.co2        1 NAP1245  -1.0000
     4 O5B         16.2240    11.7510   -18.3500 O.3          1 NAP1245   0.0000
     5 C5B         15.4450    10.6590   -18.9260 C.3          1 NAP1245   0.0000
     6 C4B         16.4870     9.9170   -19.7560 C.3          1 NAP1245   0.0000
     7 O4B         15.8450     8.7300   -20.2900 O.3          1 NAP1245   0.0000
     8 C3B         16.9080    10.7800   -20.9570 C.3          1 NAP1245   0.0000
     9 O3B         18.3120    10.6220   -21.2360 O.3          1 NAP1245   0.0000
    10 C2B         16.0480    10.2410   -22.0970 C.3          1 NAP1245   0.0000
    11 O2B         16.6250    10.4780   -23.3920 O.3          1 NAP1245   0.0000
    12 C1B         15.9580     8.7310   -21.7050 C.3          1 NAP1245   0.0000
    13 N9A         14.8140     8.1690   -22.4800 N.pl3        1 NAP1245   0.0000
    14 C8A         13.5330     8.5360   -22.4490 C.2          1 NAP1245   0.0000
    15 N7A         12.8270     7.8580   -23.3110 N.2          1 NAP1245   0.0000
    16 C5A         13.6810     7.0090   -23.8970 C.ar         1 NAP1245   0.0000
    17 C6A         13.4160     6.0530   -24.9370 C.ar         1 NAP1245   0.0000
    18 N6A         12.2100     5.8400   -25.4470 N.pl3        1 NAP1245   0.0000
    19 N1A         14.4880     5.3300   -25.3710 N.ar         1 NAP1245   0.0000
    20 C2A         15.7620     5.5350   -24.8840 C.ar         1 NAP1245   0.0000
    21 N3A         16.0040     6.4830   -23.9250 N.ar         1 NAP1245   0.0000
    22 C4A         14.9620     7.2170   -23.4150 C.ar         1 NAP1245   0.0000
    23 O3          14.6020    12.2440   -16.6070 O.3          1 NAP1245   0.0000
    24 PN          15.0040    11.8810   -15.0780 P.3          1 NAP1245   0.0000
    25 O1N         14.4360    12.9500   -14.2100 O.co2        1 NAP1245   0.0000
    26 O2N         16.4460    11.5890   -14.8840 O.co2        1 NAP1245  -1.0000
    27 O5D         14.1540    10.4980   -15.0060 O.3          1 NAP1245   0.0000
    28 C5D         14.7320     9.2470   -14.5680 C.3          1 NAP1245   0.0000
    29 C4D         13.7290     8.2340   -13.9900 C.3          1 NAP1245   0.0000
    30 O4D         13.2440     8.7850   -12.7330 O.3          1 NAP1245   0.0000
    31 C3D         12.4300     7.8910   -14.7520 C.3          1 NAP1245   0.0000
    32 O3D         12.1580     6.4980   -14.6680 O.3          1 NAP1245   0.0000
    33 C2D         11.4680     8.9550   -14.2180 C.3          1 NAP1245   0.0000
    34 O2D         10.0820     8.6810   -14.4060 O.3          1 NAP1245   0.0000
    35 C1D         11.8170     8.8150   -12.7180 C.3          1 NAP1245   0.0000
    36 N1N         11.3110     9.9050   -11.8670 N.ar         1 NAP1245   1.0000
    37 C2N         11.7710    11.2190   -12.1430 C.ar         1 NAP1245   0.0000
    38 C3N         11.3090    12.2580   -11.3390 C.ar         1 NAP1245   0.0000
    39 C7N         11.7240    13.7150   -11.5560 C.2          1 NAP1245   0.0000
    40 O7N         10.9240    14.6140   -11.2230 O.2          1 NAP1245   0.0000
    41 N7N         12.9220    13.9030   -12.1160 N.am         1 NAP1245   0.0000
    42 C4N         10.4100    11.9520   -10.2900 C.ar         1 NAP1245   0.0000
    43 C5N          9.9170    10.6910    -9.9590 C.ar         1 NAP1245   0.0000
    44 C6N         10.3950     9.6700   -10.7690 C.ar         1 NAP1245   0.0000
    45 P2B         16.1760    11.7610   -24.2510 P.3          1 NAP1245   0.0000
    46 O1X         16.2940    12.8890   -23.2570 O.co2        1 NAP1245   0.0000
    47 O2X         17.1580    11.7080   -25.3500 O.co2        1 NAP1245  -1.0000
    48 O3X         14.7500    11.5650   -24.6430 O.co2        1 NAP1245  -1.0000
    49 H5B1        14.7047    11.0068   -19.5014 H            1 NAP1245   0.0000
    50 H5B2        15.0644    10.0704   -18.2127 H            1 NAP1245   0.0000
    51 H4B         17.2796     9.6727   -19.1974 H            1 NAP1245   0.0000
    52 H3B         16.6941    11.7417   -20.7855 H            1 NAP1245   0.0000
    53 H5          18.5624    11.1913   -22.0191 H            1 NAP1245   0.0000
    54 H2B         15.1380    10.6534   -22.0546 H            1 NAP1245   0.0000
    55 H1B         16.8021     8.2663   -21.9724 H            1 NAP1245   0.0000
    56 H8A         13.1615     9.2398   -21.8435 H            1 NAP1245   0.0000
    57 H6A1        12.0859     5.1608   -26.1703 H            1 NAP1245   0.0000
    58 H6A2        11.4251     6.3587   -25.1081 H            1 NAP1245   0.0000
    59 H2A         16.5191     4.9844   -25.2356 H            1 NAP1245   0.0000
    60 H5D1        15.4104     9.4493   -13.8617 H            1 NAP1245   0.0000
    61 H5D2        15.1840     8.8227   -15.3526 H            1 NAP1245   0.0000
    62 H4D         14.2159     7.3825   -13.7953 H            1 NAP1245   0.0000
    63 H3D         12.5921     8.1002   -15.7163 H            1 NAP1245   0.0000
    64 H16         12.5938     6.0265   -15.4346 H            1 NAP1245   0.0000
    65 H2D         11.7068     9.8633   -14.5615 H            1 NAP1245   0.0000
    66 H18          9.8893     8.5924   -15.3832 H            1 NAP1245   0.0000
    67 H1D         11.4708     7.9408   -12.3775 H            1 NAP1245   0.0000
    68 H2N         12.4086    11.3937   -12.8933 H            1 NAP1245   0.0000
    69 H7N1        13.2545    14.8307   -12.2859 H            1 NAP1245   0.0000
    70 H7N2        13.4864    13.1161   -12.3654 H            1 NAP1245   0.0000
    71 H4N         10.0965    12.7183    -9.7292 H            1 NAP1245   0.0000
    72 H5N          9.2771    10.5359    -9.2064 H            1 NAP1245   0.0000
    73 H6N         10.0948     8.7336   -10.5873 H            1 NAP1245   0.0000
@<TRIPOS>BOND
     1    1    2      ar
     2    1    3      ar
     3    1    4       1
     4    1   23       1
     5    4    5       1
     6    5    6       1
     7    6    7       1
     8    6    8       1
     9    7   12       1
    10    8    9       1
    11    8   10       1
    12   10   11       1
    13   10   12       1
    14   11   45       1
    15   12   13       1
    16   13   14       1
    17   13   22       1
    18   14   15       2
    19   15   16       1
    20   16   17      ar
    21   16   22      ar
    22   17   18       1
    23   17   19      ar
    24   19   20      ar
    25   20   21      ar
    26   21   22      ar
    27   23   24       1
    28   24   25      ar
    29   24   26      ar
    30   24   27       1
    31   27   28       1
    32   28   29       1
    33   29   30       1
    34   29   31       1
    35   30   35       1
    36   31   32       1
    37   31   33       1
    38   33   34       1
    39   33   35       1
    40   35   36       1
    41   36   37      ar
    42   36   44      ar
    43   37   38      ar
    44   38   39       1
    45   38   42      ar
    46   39   40       2
    47   39   41      am
    48   42   43      ar
    49   43   44      ar
    50   45   46      ar
    51   45   47      ar
    52   45   48      ar
    53   43   72       1
    54    5   49       1
    55    5   50       1
    56    6   51       1
    57    8   52       1
    58    9   53       1
    59   10   54       1
    60   12   55       1
    61   14   56       1
    62   18   57       1
    63   18   58       1
    64   20   59       1
    65   44   73       1
    66   28   60       1
    67   28   61       1
    68   29   62       1
    69   31   63       1
    70   32   64       1
    71   33   65       1
    72   34   66       1
    73   35   67       1
    74   37   68       1
    75   41   69       1
    76   41   70       1
    77   42   71       1
@<TRIPOS>SUBSTRUCTURE
     1 NAP1245     1 GROUP             4 B     NAP     0 **** NAP B1245
