@<TRIPOS>MOLECULE
1i9g_SAM_1_ligand
   50    52     1     0     0
SMALL
NO_CHARGES


@<TRIPOS>ATOM
     1 N           21.3670    -8.8210    19.0340 N.4          1 SAM301   1.0000
     2 CA          21.1160   -10.1940    19.4590 C.3          1 SAM301   0.0000
     3 C           22.4540   -10.9190    19.6770 C.2          1 SAM301   0.0000
     4 O           23.5260   -10.3980    19.3340 O.co2        1 SAM301   0.0000
     5 OXT         22.4240   -12.1420    19.9090 O.co2        1 SAM301  -1.0000
     6 CB          20.2900   -10.9150    18.3690 C.3          1 SAM301   0.0000
     7 CG          18.7870   -10.5290    18.3470 C.3          1 SAM301   0.0000
     8 SD          17.8110   -11.5710    17.1840 S.3          1 SAM301   1.0000
     9 CE          18.2180   -10.9710    15.5470 C.3          1 SAM301   0.0000
    10 C5'         16.1370   -10.8400    17.3490 C.3          1 SAM301   0.0000
    11 C4'         15.6180   -11.3010    18.6250 C.3          1 SAM301   0.0000
    12 O4'         14.5690   -10.3180    18.9810 O.3          1 SAM301   0.0000
    13 C3'         14.8940   -12.7220    18.4630 C.3          1 SAM301   0.0000
    14 O3'         15.3800   -13.6200    19.5290 O.3          1 SAM301   0.0000
    15 C2'         13.4190   -12.4090    18.6780 C.3          1 SAM301   0.0000
    16 O2'         12.6730   -13.4300    19.3220 O.3          1 SAM301   0.0000
    17 C1'         13.4210   -11.0940    19.4450 C.3          1 SAM301   0.0000
    18 N9          12.1130   -10.2790    19.4220 N.pl3        1 SAM301   0.0000
    19 C8          11.5200    -9.8390    18.2430 C.2          1 SAM301   0.0000
    20 N7          10.5730    -8.9520    18.4180 N.2          1 SAM301   0.0000
    21 C5          10.5650    -8.7690    19.8230 C.ar         1 SAM301   0.0000
    22 C6           9.7700    -7.9490    20.6560 C.ar         1 SAM301   0.0000
    23 N6           8.8140    -7.1260    20.1640 N.pl3        1 SAM301   0.0000
    24 N1           9.9920    -8.0120    21.9910 N.ar         1 SAM301   0.0000
    25 C2          10.9300    -8.8370    22.4790 C.ar         1 SAM301   0.0000
    26 N3          11.7390    -9.6660    21.8090 N.ar         1 SAM301   0.0000
    27 C4          11.4920    -9.5660    20.4600 C.ar         1 SAM301   0.0000
    28 H1          20.9566    -8.6701    18.1347 H            1 SAM301   0.0000
    29 H2          20.9634    -8.1884    19.6950 H            1 SAM301   0.0000
    30 HA          20.5997   -10.1867    20.3154 H            1 SAM301   0.0000
    31 HB1         20.3580   -11.9004    18.5250 H            1 SAM301   0.0000
    32 HB2         20.6841   -10.6906    17.4777 H            1 SAM301   0.0000
    33 HG1         18.7052    -9.5725    18.0670 H            1 SAM301   0.0000
    34 HG2         18.4136   -10.6398    19.2680 H            1 SAM301   0.0000
    35 HE1         17.7157   -11.5006    14.8634 H            1 SAM301   0.0000
    36 HE2         17.9651   -10.0063    15.4731 H            1 SAM301   0.0000
    37 HE3         19.2005   -11.0709    15.3901 H            1 SAM301   0.0000
    38 H5'1        15.5481   -11.1502    16.6027 H            1 SAM301   0.0000
    39 H5'2        16.1919    -9.8416    17.3373 H            1 SAM301   0.0000
    40 H4'         16.3364   -11.3351    19.3198 H            1 SAM301   0.0000
    41 H3'         15.0554   -13.1119    17.5564 H            1 SAM301   0.0000
    42 H15         15.1621   -13.2259    20.4219 H            1 SAM301   0.0000
    43 H2'         13.0054   -12.2431    17.7828 H            1 SAM301   0.0000
    44 H17         13.0615   -13.6067    20.2264 H            1 SAM301   0.0000
    45 H1'         13.5986   -11.3220    20.4023 H            1 SAM301   0.0000
    46 H19         11.7933   -10.1713    17.3403 H            1 SAM301   0.0000
    47 H20          8.2720    -6.5610    20.7862 H            1 SAM301   0.0000
    48 H21          8.6499    -7.0831    19.1785 H            1 SAM301   0.0000
    49 H22         11.0390    -8.8320    23.4730 H            1 SAM301   0.0000
    50 H23         22.3531    -8.6634    18.9811 H            1 SAM301   0.0000
@<TRIPOS>BOND
     1    1    2       1
     2    2    3       1
     3    2    6       1
     4    3    4      ar
     5    3    5      ar
     6    6    7       1
     7    7    8       1
     8    8    9       1
     9    8   10       1
    10   10   11       1
    11   11   12       1
    12   11   13       1
    13   12   17       1
    14   13   14       1
    15   13   15       1
    16   15   16       1
    17   15   17       1
    18   17   18       1
    19   18   19       1
    20   18   27       1
    21   19   20       2
    22   20   21       1
    23   21   22      ar
    24   21   27      ar
    25   22   23       1
    26   22   24      ar
    27   24   25      ar
    28   25   26      ar
    29   26   27      ar
    30    1   28       1
    31    1   29       1
    32    2   30       1
    33    1   50       1
    34    6   31       1
    35    6   32       1
    36    7   33       1
    37    7   34       1
    38    9   35       1
    39    9   36       1
    40    9   37       1
    41   10   38       1
    42   10   39       1
    43   11   40       1
    44   13   41       1
    45   14   42       1
    46   15   43       1
    47   16   44       1
    48   17   45       1
    49   19   46       1
    50   23   47       1
    51   23   48       1
    52   25   49       1
@<TRIPOS>SUBSTRUCTURE
     1 SAM301      1 GROUP             4 A     SAM     0 **** SAM A 301
