@<TRIPOS>MOLECULE
3b6z_CO7_1_ligand
   89    91     1     0     0
SMALL
NO_CHARGES


@<TRIPOS>ATOM
     1 O1          23.1460    41.0300    67.7180 O.2          1 CO7610   0.0000
     2 C1          22.5230    41.2570    66.6730 C.2          1 CO7610   0.0000
     3 C2          23.0650    40.8410    65.3420 C.2          1 CO7610   0.0000
     4 C3          22.5020    41.1700    64.1680 C.2          1 CO7610   0.0000
     5 C4          23.2220    40.6760    62.9360 C.3          1 CO7610   0.0000
     6 S1          21.0560    42.0500    66.8120 S.3          1 CO7610   0.0000
     7 C5          21.1390    42.4510    68.5680 C.3          1 CO7610   0.0000
     8 C6          19.9170    41.9440    69.3570 C.3          1 CO7610   0.0000
     9 N1          18.8920    42.9820    69.5190 N.am         1 CO7610   0.0000
    10 C7          17.9780    43.4170    68.6290 C.2          1 CO7610   0.0000
    11 O2          17.9310    42.9660    67.4860 O.2          1 CO7610   0.0000
    12 C8          16.9900    44.5120    69.0360 C.3          1 CO7610   0.0000
    13 C9          15.7050    44.5190    68.1750 C.3          1 CO7610   0.0000
    14 N2          15.0430    43.2350    68.3990 N.am         1 CO7610   0.0000
    15 C10         14.0800    42.9640    69.2740 C.2          1 CO7610   0.0000
    16 O3          13.6070    43.8160    69.9980 O.2          1 CO7610   0.0000
    17 C11         13.5730    41.5450    69.3420 C.3          1 CO7610   0.0000
    18 O4          12.1500    41.5040    69.5910 O.3          1 CO7610   0.0000
    19 C12         14.3290    40.6840    70.3700 C.3          1 CO7610   0.0000
    20 C13         14.1050    41.1490    71.8040 C.3          1 CO7610   0.0000
    21 C14         15.8250    40.6630    70.0140 C.3          1 CO7610   0.0000
    22 C15         13.7360    39.2900    70.2730 C.3          1 CO7610   0.0000
    23 O5          13.7900    38.8500    68.9070 O.3          1 CO7610   0.0000
    24 P1          13.8180    37.2900    68.5570 P.3          1 CO7610   0.0000
    25 O6          14.8690    36.5940    69.3650 O.co2        1 CO7610   0.0000
    26 O7          13.9270    37.2310    67.0650 O.co2        1 CO7610  -1.0000
    27 O8          12.4450    36.6170    69.0700 O.3          1 CO7610   0.0000
    28 P2          11.1070    36.1700    68.2940 P.3          1 CO7610   0.0000
    29 O9          10.5400    37.3470    67.5400 O.co2        1 CO7610   0.0000
    30 O10         11.2860    34.8260    67.6190 O.co2        1 CO7610  -1.0000
    31 O11         10.1990    35.9500    69.6000 O.3          1 CO7610   0.0000
    32 C16          8.7840    36.1060    69.6460 C.3          1 CO7610   0.0000
    33 C17          8.3030    35.3380    70.8710 C.3          1 CO7610   0.0000
    34 C18          6.8130    35.1010    70.8210 C.3          1 CO7610   0.0000
    35 O12          6.5630    33.9130    70.0980 O.3          1 CO7610   0.0000
    36 C19          6.4010    34.9110    72.2690 C.3          1 CO7610   0.0000
    37 O13          6.6680    33.5640    72.6640 O.3          1 CO7610   0.0000
    38 P3           5.5200    32.5810    73.2870 P.3          1 CO7610   0.0000
    39 O14          4.5180    32.4410    72.1720 O.co2        1 CO7610   0.0000
    40 O15          6.2390    31.2900    73.5520 O.co2        1 CO7610  -1.0000
    41 O16          5.0100    33.2670    74.5480 O.co2        1 CO7610  -1.0000
    42 O17          8.3750    36.1670    72.0110 O.3          1 CO7610   0.0000
    43 C20          7.3840    35.7770    72.9930 C.3          1 CO7610   0.0000
    44 N3           6.7740    37.0080    73.5500 N.pl3        1 CO7610   0.0000
    45 C21          6.5970    37.2660    74.8410 C.ar         1 CO7610   0.0000
    46 N4           6.8950    36.5450    75.9570 N.ar         1 CO7610   0.0000
    47 C22          6.6180    37.0490    77.1670 C.ar         1 CO7610   0.0000
    48 C23          6.3540    38.1030    72.8470 C.2          1 CO7610   0.0000
    49 N5           5.8900    39.0460    73.7130 N.2          1 CO7610   0.0000
    50 C24          6.0490    38.5510    74.9650 C.ar         1 CO7610   0.0000
    51 C25          5.7940    39.0400    76.2530 C.ar         1 CO7610   0.0000
    52 N6           6.0730    38.2640    77.3210 N.ar         1 CO7610   0.0000
    53 N7           5.2510    40.2530    76.4680 N.pl3        1 CO7610   0.0000
    54 H1          23.8959    40.2849    65.3256 H            1 CO7610   0.0000
    55 H2          21.6604    41.7074    64.1132 H            1 CO7610   0.0000
    56 H3          22.7263    40.9715    62.1193 H            1 CO7610   0.0000
    57 H4          24.1484    41.0522    62.9180 H            1 CO7610   0.0000
    58 H5          23.2681    39.6772    62.9548 H            1 CO7610   0.0000
    59 H6          21.1923    43.4447    68.6662 H            1 CO7610   0.0000
    60 H7          21.9625    42.0334    68.9521 H            1 CO7610   0.0000
    61 H8          20.2193    41.6459    70.2624 H            1 CO7610   0.0000
    62 H9          19.5164    41.1694    68.8675 H            1 CO7610   0.0000
    63 H10         18.8685    43.4283    70.4136 H            1 CO7610   0.0000
    64 H11         17.4414    45.3993    68.9416 H            1 CO7610   0.0000
    65 H12         16.7322    44.3692    69.9916 H            1 CO7610   0.0000
    66 H13         15.9384    44.6225    67.2081 H            1 CO7610   0.0000
    67 H14         15.1062    45.2692    68.4555 H            1 CO7610   0.0000
    68 H15         15.3499    42.4732    67.8285 H            1 CO7610   0.0000
    69 H16         13.7268    41.1339    68.4435 H            1 CO7610   0.0000
    70 H17         11.6687    41.9776    68.8534 H            1 CO7610   0.0000
    71 H18         14.6157    40.5590    72.4294 H            1 CO7610   0.0000
    72 H19         14.4221    42.0923    71.9019 H            1 CO7610   0.0000
    73 H20         13.1302    41.1008    72.0216 H            1 CO7610   0.0000
    74 H21         16.3184    40.1042    70.6805 H            1 CO7610   0.0000
    75 H22         15.9447    40.2752    69.1001 H            1 CO7610   0.0000
    76 H23         16.1846    41.5960    70.0299 H            1 CO7610   0.0000
    77 H24         12.7849    39.3085    70.5814 H            1 CO7610   0.0000
    78 H25         14.2607    38.6622    70.8480 H            1 CO7610   0.0000
    79 H26          8.3681    35.7306    68.8177 H            1 CO7610   0.0000
    80 H27          8.5458    37.0736    69.7295 H            1 CO7610   0.0000
    81 H28          8.8107    34.4860    70.9984 H            1 CO7610   0.0000
    82 H29          6.3380    35.8793    70.4104 H            1 CO7610   0.0000
    83 H30          5.9955    34.1208    69.3013 H            1 CO7610   0.0000
    84 H31          5.4530    35.1808    72.4379 H            1 CO7610   0.0000
    85 H32          7.8205    35.2543    73.7253 H            1 CO7610   0.0000
    86 H33          6.8238    36.5029    77.9790 H            1 CO7610   0.0000
    87 H34          6.3830    38.1968    71.8518 H            1 CO7610   0.0000
    88 H35          5.0838    40.5675    77.4024 H            1 CO7610   0.0000
    89 H36          5.0148    40.8395    75.6933 H            1 CO7610   0.0000
@<TRIPOS>BOND
     1    1    2       2
     2    2    3       1
     3    2    6       1
     4    3    4       2
     5    4    5       1
     6    6    7       1
     7    7    8       1
     8    8    9       1
     9    9   10      am
    10   10   11       2
    11   10   12       1
    12   12   13       1
    13   13   14       1
    14   14   15      am
    15   15   16       2
    16   15   17       1
    17   17   18       1
    18   17   19       1
    19   19   20       1
    20   19   21       1
    21   19   22       1
    22   22   23       1
    23   23   24       1
    24   24   25      ar
    25   24   26      ar
    26   24   27       1
    27   27   28       1
    28   28   29      ar
    29   28   30      ar
    30   28   31       1
    31   31   32       1
    32   32   33       1
    33   33   34       1
    34   33   42       1
    35   34   35       1
    36   34   36       1
    37   36   37       1
    38   36   43       1
    39   37   38       1
    40   38   39      ar
    41   38   40      ar
    42   38   41      ar
    43   42   43       1
    44   43   44       1
    45   44   45       1
    46   44   48       1
    47   45   46      ar
    48   45   50      ar
    49   46   47      ar
    50   47   52      ar
    51   48   49       2
    52   49   50       1
    53   50   51      ar
    54   51   52      ar
    55   51   53       1
    56    3   54       1
    57    4   55       1
    58    5   56       1
    59    5   57       1
    60    5   58       1
    61    7   59       1
    62    7   60       1
    63    8   61       1
    64    8   62       1
    65    9   63       1
    66   12   64       1
    67   12   65       1
    68   13   66       1
    69   13   67       1
    70   14   68       1
    71   17   69       1
    72   18   70       1
    73   20   71       1
    74   20   72       1
    75   20   73       1
    76   21   74       1
    77   21   75       1
    78   21   76       1
    79   22   77       1
    80   22   78       1
    81   53   89       1
    82   53   88       1
    83   32   79       1
    84   32   80       1
    85   33   81       1
    86   34   82       1
    87   35   83       1
    88   36   84       1
    89   48   87       1
    90   47   86       1
    91   43   85       1
@<TRIPOS>SUBSTRUCTURE
     1 CO7610      1 GROUP             4 A     CO7     0 **** CO7 A 610
