@<TRIPOS>MOLECULE
1njj_ORX_3_ligand
   44    44     1     0     0
SMALL
NO_CHARGES


@<TRIPOS>ATOM
     1 OA          11.3660     8.9420    32.2030 O.co2        1 ORX604   0.0000
     2 CA          10.5150     7.9770    31.7510 C.2          1 ORX604   0.0000
     3 OXT          9.5830     8.2810    30.8030 O.co2        1 ORX604  -1.0000
     4 CAA         10.6100     6.5430    32.3090 C.3          1 ORX604   0.0000
     5 NA          10.8070     5.5090    31.1580 N.4          1 ORX604   1.0000
     6 C4A          9.5170     4.9960    30.5280 C.3          1 ORX604   0.0000
     7 C4           9.6650     4.6960    28.9840 C.ar         1 ORX604   0.0000
     8 C5           8.5990     4.2050    28.1820 C.ar         1 ORX604   0.0000
     9 C6           8.6060     3.9000    26.8430 C.ar         1 ORX604   0.0000
    10 N1           9.7370     4.0700    26.1180 N.ar         1 ORX604   0.0000
    11 C2          10.8830     4.5490    26.7270 C.ar         1 ORX604   0.0000
    12 C3          10.8350     4.8600    28.1680 C.ar         1 ORX604   0.0000
    13 O3          12.0380     5.3300    28.6100 O.3          1 ORX604  -1.0000
    14 C2A         11.9780     4.6550    25.6840 C.3          1 ORX604   0.0000
    15 C5A          7.2280     3.9500    28.7780 C.3          1 ORX604   0.0000
    16 OP4          6.7680     4.7870    29.7670 O.3          1 ORX604   0.0000
    17 P            5.3180     5.3980    29.5960 P.3          1 ORX604   0.0000
    18 OP1          5.2480     6.7820    29.9310 O.co2        1 ORX604   0.0000
    19 OP2          4.8130     4.8460    28.2850 O.co2        1 ORX604  -1.0000
    20 OP3          4.5500     4.7470    30.7210 O.co2        1 ORX604  -1.0000
    21 CBA          9.3730     6.3200    33.2170 C.3          1 ORX604   0.0000
    22 CGA          9.6630     6.2450    34.7030 C.3          1 ORX604   0.0000
    23 CDA          9.6000     4.8030    35.2200 C.3          1 ORX604   0.0000
    24 NE           9.5690     4.8240    36.7030 N.4          1 ORX604   1.0000
    25 HAA         11.4214     6.5011    32.8919 H            1 ORX604   0.0000
    26 HA1         11.3057     4.7247    31.5270 H            1 ORX604   0.0000
    27 H4A1         8.8045     5.6866    30.6522 H            1 ORX604   0.0000
    28 H4A2         9.2482     4.1524    30.9928 H            1 ORX604   0.0000
    29 H5           7.7772     3.5529    26.4041 H            1 ORX604   0.0000
    30 H2A1        12.8133     5.0006    26.1116 H            1 ORX604   0.0000
    31 H2A2        12.1533     3.7520    25.2918 H            1 ORX604   0.0000
    32 H2A3        11.6897     5.2823    24.9606 H            1 ORX604   0.0000
    33 H5A1         7.2406     3.0252    29.1583 H            1 ORX604   0.0000
    34 H5A2         6.5689     3.9927    28.0272 H            1 ORX604   0.0000
    35 HBA1         8.9401     5.4611    32.9433 H            1 ORX604   0.0000
    36 HBA2         8.7376     7.0770    33.0644 H            1 ORX604   0.0000
    37 HGA1         8.9871     6.7951    35.1934 H            1 ORX604   0.0000
    38 HGA2        10.5778     6.6110    34.8737 H            1 ORX604   0.0000
    39 HDA1        10.4057     4.2994    34.9084 H            1 ORX604   0.0000
    40 HDA2         8.7742     4.3581    34.8734 H            1 ORX604   0.0000
    41 HE1          9.5278     3.8866    37.0489 H            1 ORX604   0.0000
    42 HE2         10.3949     5.2704    37.0474 H            1 ORX604   0.0000
    43 HA2         11.3519     5.9430    30.4405 H            1 ORX604   0.0000
    44 HE3          8.7634     5.3291    37.0124 H            1 ORX604   0.0000
@<TRIPOS>BOND
     1    1    2      ar
     2    2    3      ar
     3    2    4       1
     4    4    5       1
     5    4   21       1
     6    5    6       1
     7    6    7       1
     8    7    8      ar
     9    7   12      ar
    10    8    9      ar
    11    8   15       1
    12    9   10      ar
    13   10   11      ar
    14   11   12      ar
    15   11   14       1
    16   12   13       1
    17   15   16       1
    18   16   17       1
    19   17   18      ar
    20   17   19      ar
    21   17   20      ar
    22   21   22       1
    23   22   23       1
    24   23   24       1
    25   24   42       1
    26    4   25       1
    27    5   26       1
    28    6   27       1
    29    6   28       1
    30    9   29       1
    31   24   44       1
    32   14   30       1
    33   14   31       1
    34   14   32       1
    35   15   33       1
    36   15   34       1
    37    5   43       1
    38   24   41       1
    39   21   35       1
    40   21   36       1
    41   22   37       1
    42   22   38       1
    43   23   39       1
    44   23   40       1
@<TRIPOS>SUBSTRUCTURE
     1 ORX604      1 GROUP             4 C     ORX     0 **** ORX C 604
