@<TRIPOS>MOLECULE
2bjf_DXC_1_ligand
   67    70     1     0     0
SMALL
NO_CHARGES


@<TRIPOS>ATOM
     1 C1          40.6790     0.4740    24.7630 C.3          1 DXC330   0.0000
     2 C2          39.5460    -0.5510    24.8050 C.3          1 DXC330   0.0000
     3 C3          38.9980    -0.9130    23.4130 C.3          1 DXC330   0.0000
     4 C4          38.6230     0.3070    22.5520 C.3          1 DXC330   0.0000
     5 C5          39.7770     1.3110    22.5590 C.3          1 DXC330   0.0000
     6 C6          40.2620     1.7000    23.9570 C.3          1 DXC330   0.0000
     7 C7          37.8420    -1.9130    23.5680 C.3          1 DXC330   0.0000
     8 C8          36.5320    -1.2790    24.0410 C.3          1 DXC330   0.0000
     9 C9          36.1460    -0.0050    23.2870 C.3          1 DXC330   0.0000
    10 C10         37.3350     0.9640    23.1140 C.3          1 DXC330   0.0000
    11 C11         35.0550     0.7660    24.0380 C.3          1 DXC330   0.0000
    12 C12         34.5630     2.0330    23.3340 C.3          1 DXC330   0.0000
    13 C13         35.7450     2.9860    23.0980 C.3          1 DXC330   0.0000
    14 C14         36.9140     2.2680    22.4040 C.3          1 DXC330   0.0000
    15 C15         33.8030     0.0270    24.5120 C.3          1 DXC330   0.0000
    16 C16         32.8170     1.1670    24.7920 C.3          1 DXC330   0.0000
    17 C17         33.5110     2.4730    24.3650 C.3          1 DXC330   0.0000
    18 C18         38.4130    -0.1240    21.1010 C.3          1 DXC330   0.0000
    19 C19         32.5020     3.5930    24.0280 C.3          1 DXC330   0.0000
    20 O1          36.1940     3.5800    24.3260 O.3          1 DXC330   0.0000
    21 O2          41.0060     0.8750    26.0990 O.3          1 DXC330   0.0000
    22 C20         33.9030     1.7140    21.9790 C.3          1 DXC330   0.0000
    23 C21         31.6940     4.0130    25.2630 C.3          1 DXC330   0.0000
    24 C22         32.5710     4.5530    26.3970 C.3          1 DXC330   0.0000
    25 C23         31.8090     5.4570    27.3400 C.2          1 DXC330   0.0000
    26 O3          30.6460     5.8130    27.0540 O.co2        1 DXC330   0.0000
    27 O4          32.3880     5.8200    28.3860 O.co2        1 DXC330  -1.0000
    28 C24         33.1140     4.8350    23.3740 C.3          1 DXC330   0.0000
    29 H1          41.4832     0.0585    24.3379 H            1 DXC330   0.0000
    30 H2          38.7982    -0.1748    25.3521 H            1 DXC330   0.0000
    31 H3          39.8887    -1.3849    25.2375 H            1 DXC330   0.0000
    32 H4          39.7310    -1.3922    22.9303 H            1 DXC330   0.0000
    33 H5          39.4736     2.1406    22.0903 H            1 DXC330   0.0000
    34 H6          40.5454     0.9089    22.0612 H            1 DXC330   0.0000
    35 H7          41.0463     2.3143    23.8700 H            1 DXC330   0.0000
    36 H8          39.5224     2.1699    24.4388 H            1 DXC330   0.0000
    37 H9          38.1139    -2.6077    24.2340 H            1 DXC330   0.0000
    38 H10         37.6798    -2.3465    22.6815 H            1 DXC330   0.0000
    39 H11         36.6244    -1.0539    25.0110 H            1 DXC330   0.0000
    40 H12         35.7986    -1.9483    23.9225 H            1 DXC330   0.0000
    41 H13         35.8000    -0.2566    22.3831 H            1 DXC330   0.0000
    42 H14         37.5747     1.2441    24.0435 H            1 DXC330   0.0000
    43 H15         35.4965     1.0899    24.8747 H            1 DXC330   0.0000
    44 H16         35.4332     3.7209    22.4958 H            1 DXC330   0.0000
    45 H17         36.6400     2.0460    21.4682 H            1 DXC330   0.0000
    46 H18         37.6995     2.8865    22.3835 H            1 DXC330   0.0000
    47 H19         33.9887    -0.4998    25.3415 H            1 DXC330   0.0000
    48 H20         33.4546    -0.5833    23.8005 H            1 DXC330   0.0000
    49 H21         32.5951     1.1982    25.7666 H            1 DXC330   0.0000
    50 H22         31.9786     1.0343    24.2633 H            1 DXC330   0.0000
    51 H23         34.0213     2.7904    25.1643 H            1 DXC330   0.0000
    52 H24         38.1699     0.6732    20.5483 H            1 DXC330   0.0000
    53 H25         39.2563    -0.5295    20.7483 H            1 DXC330   0.0000
    54 H26         37.6753    -0.7977    21.0568 H            1 DXC330   0.0000
    55 H27         31.8516     3.2101    23.3720 H            1 DXC330   0.0000
    56 H28         37.1735     3.7718    24.2649 H            1 DXC330   0.0000
    57 H29         40.8223     0.1197    26.7281 H            1 DXC330   0.0000
    58 H30         33.5952     2.5632    21.5500 H            1 DXC330   0.0000
    59 H31         34.5665     1.2612    21.3834 H            1 DXC330   0.0000
    60 H32         33.1189     1.1105    22.1240 H            1 DXC330   0.0000
    61 H33         31.1910     3.2173    25.6004 H            1 DXC330   0.0000
    62 H34         31.0472     4.7263    24.9931 H            1 DXC330   0.0000
    63 H35         33.3277     5.0709    25.9981 H            1 DXC330   0.0000
    64 H36         32.9339     3.7800    26.9174 H            1 DXC330   0.0000
    65 H37         32.3941     5.5046    23.1914 H            1 DXC330   0.0000
    66 H38         33.7932     5.2352    23.9892 H            1 DXC330   0.0000
    67 H39         33.5544     4.5763    22.5143 H            1 DXC330   0.0000
@<TRIPOS>BOND
     1    1    2       1
     2    1    6       1
     3    1   21       1
     4    2    3       1
     5    3    4       1
     6    3    7       1
     7    4    5       1
     8    4   10       1
     9    4   18       1
    10    5    6       1
    11    7    8       1
    12    8    9       1
    13    9   10       1
    14    9   11       1
    15   10   14       1
    16   11   12       1
    17   11   15       1
    18   12   13       1
    19   12   17       1
    20   12   22       1
    21   13   14       1
    22   13   20       1
    23   15   16       1
    24   16   17       1
    25   17   19       1
    26   19   23       1
    27   19   28       1
    28   23   24       1
    29   24   25       1
    30   25   26      ar
    31   25   27      ar
    32    1   29       1
    33    2   30       1
    34    2   31       1
    35    3   32       1
    36    5   33       1
    37    5   34       1
    38    6   35       1
    39    6   36       1
    40    7   37       1
    41    7   38       1
    42    8   39       1
    43    8   40       1
    44    9   41       1
    45   10   42       1
    46   11   43       1
    47   13   44       1
    48   14   45       1
    49   14   46       1
    50   15   47       1
    51   15   48       1
    52   16   49       1
    53   16   50       1
    54   17   51       1
    55   18   52       1
    56   18   53       1
    57   18   54       1
    58   19   55       1
    59   20   56       1
    60   21   57       1
    61   22   58       1
    62   22   59       1
    63   22   60       1
    64   23   61       1
    65   23   62       1
    66   24   63       1
    67   24   64       1
    68   28   67       1
    69   28   65       1
    70   28   66       1
@<TRIPOS>SUBSTRUCTURE
     1 DXC330      1 GROUP             4 A     DXC     0 **** DXC A 330
