@<TRIPOS>MOLECULE
4a3u_NCA_1_ligand
   15    15     1     0     0
SMALL
NO_CHARGES


@<TRIPOS>ATOM
     1 N1           7.3030     5.6020    29.5760 N.ar         1 NCA1359   0.0000
     2 C2           7.1820     4.2750    29.6930 C.ar         1 NCA1359   0.0000
     3 C3           6.8560     3.5000    28.5560 C.ar         1 NCA1359   0.0000
     4 C4           6.6620     4.0900    27.3220 C.ar         1 NCA1359   0.0000
     5 C5           6.8030     5.4840    27.2310 C.ar         1 NCA1359   0.0000
     6 C6           7.1240     6.1980    28.3660 C.ar         1 NCA1359   0.0000
     7 C7           6.7150     1.9940    28.6160 C.2          1 NCA1359   0.0000
     8 O7           6.9206     1.4521    29.7078 O.2          1 NCA1359   0.0000
     9 N7           6.4373     1.3235    27.4979 N.am         1 NCA1359   0.0000
    10 H1           7.3213     3.8335    30.5794 H            1 NCA1359   0.0000
    11 H2           6.4285     3.5416    26.5190 H            1 NCA1359   0.0000
    12 H3           6.6727     5.9516    26.3567 H            1 NCA1359   0.0000
    13 H4           7.2291     7.1901    28.2974 H            1 NCA1359   0.0000
    14 H5           6.4304     0.3235    27.5033 H            1 NCA1359   0.0000
    15 H6           6.2359     1.8204    26.6538 H            1 NCA1359   0.0000
@<TRIPOS>BOND
     1    1    2      ar
     2    1    6      ar
     3    2    3      ar
     4    3    4      ar
     5    3    7       1
     6    4    5      ar
     7    5    6      ar
     8    7    8       2
     9    7    9      am
    10    2   10       1
    11    4   11       1
    12    5   12       1
    13    6   13       1
    14    9   14       1
    15    9   15       1
@<TRIPOS>SUBSTRUCTURE
     1 NCA1359     1 GROUP             4 A     NCA     0 **** NCA A1359
