@<TRIPOS>MOLECULE
4mbe_GLU_SER_ILE_VAL_2_ligand
   64    63     4     0     0
SMALL
NO_CHARGES


@<TRIPOS>ATOM
     1 N            9.3410   -38.4690   -19.0820 N.4          1 GLU327   1.0000
     2 CA           9.0070   -38.5970   -20.4950 C.3          1 GLU327   0.0000
     3 C            9.9630   -37.7690   -21.3550 C.2          1 GLU327   0.0000
     4 O            9.9420   -36.5400   -21.3110 O.2          1 GLU327   0.0000
     5 CB           7.5600   -38.1550   -20.7420 C.3          1 GLU327   0.0000
     6 CG           6.6090   -39.2770   -21.1680 C.3          1 GLU327   0.0000
     7 CD           6.1040   -40.1050   -20.0010 C.2          1 GLU327   0.0000
     8 OE1          6.9360   -40.5890   -19.2030 O.co2        1 GLU327   0.0000
     9 OE2          4.8710   -40.2710   -19.8820 O.co2        1 GLU327  -1.0000
    10 H1          10.2863   -38.7602   -18.9352 H            1 GLU327   0.0000
    11 H2           9.2386   -37.5150   -18.8004 H            1 GLU327   0.0000
    12 HA           9.0951   -39.5581   -20.7568 H            1 GLU327   0.0000
    13 HB1          7.5653   -37.4616   -21.4625 H            1 GLU327   0.0000
    14 HB2          7.2086   -37.7540   -19.8960 H            1 GLU327   0.0000
    15 HG1          7.0931   -39.8812   -21.8009 H            1 GLU327   0.0000
    16 HG2          5.8230   -38.8688   -21.6322 H            1 GLU327   0.0000
    17 N           10.8010   -38.4550   -22.1300 N.am         2 SER328   0.0000
    18 CA          11.8040   -37.8070   -22.9780 C.3          2 SER328   0.0000
    19 C           11.5320   -37.9980   -24.4680 C.2          2 SER328   0.0000
    20 O           11.8200   -39.0540   -25.0310 O.2          2 SER328   0.0000
    21 CB          13.1910   -38.3590   -22.6590 C.3          2 SER328   0.0000
    22 OG          14.0880   -38.1110   -23.7280 O.3          2 SER328   0.0000
    23 H8          10.7431   -39.4533   -22.1331 H            2 SER328   0.0000
    24 H9          11.8005   -36.8270   -22.7792 H            2 SER328   0.0000
    25 H10         13.1249   -39.3454   -22.5083 H            2 SER328   0.0000
    26 H11         13.5373   -37.9178   -21.8311 H            2 SER328   0.0000
    27 HG          14.9890   -38.4797   -23.4994 H            2 SER328   0.0000
    28 N           11.0070   -36.9600   -25.1110 N.am         3 ILE329   0.0000
    29 CA          10.6560   -37.0380   -26.5250 C.3          3 ILE329   0.0000
    30 C           11.9150   -36.9370   -27.3960 C.2          3 ILE329   0.0000
    31 O           12.7400   -36.0450   -27.2160 O.2          3 ILE329   0.0000
    32 CB           9.6380   -35.9390   -26.9290 C.3          3 ILE329   0.0000
    33 CG1          8.4510   -35.8940   -25.9540 C.3          3 ILE329   0.0000
    34 CG2          9.1410   -36.1610   -28.3550 C.3          3 ILE329   0.0000
    35 CD1          7.4470   -37.0330   -26.1010 C.3          3 ILE329   0.0000
    36 H13         10.8490   -36.1065   -24.6145 H            3 ILE329   0.0000
    37 H14         10.2337   -37.9290   -26.6916 H            3 ILE329   0.0000
    38 HB          10.1036   -35.0546   -26.8949 H            3 ILE329   0.0000
    39 HG11         7.9646   -35.0322   -26.0981 H            3 ILE329   0.0000
    40 HG12         8.8143   -35.9200   -25.0227 H            3 ILE329   0.0000
    41 HG21         8.4872   -35.4436   -28.5956 H            3 ILE329   0.0000
    42 HG22         9.9158   -36.1313   -28.9865 H            3 ILE329   0.0000
    43 HG23         8.6943   -37.0535   -28.4172 H            3 ILE329   0.0000
    44 HD11         6.7146   -36.9205   -25.4295 H            3 ILE329   0.0000
    45 HD12         7.0593   -37.0187   -27.0227 H            3 ILE329   0.0000
    46 HD13         7.9090   -37.9065   -25.9472 H            3 ILE329   0.0000
    47 N           12.0320   -37.8710   -28.3380 N.am         4 VAL330   0.0000
    48 CA          13.1830   -38.0110   -29.2380 C.3          4 VAL330   0.0000
    49 C           14.5280   -37.8040   -28.5350 C.2          4 VAL330   0.0000
    50 O           14.6770   -38.0910   -27.3470 O.2          4 VAL330   0.0000
    51 CB          13.0550   -37.0790   -30.4790 C.3          4 VAL330   0.0000
    52 CG1         13.6160   -35.6960   -30.2020 C.3          4 VAL330   0.0000
    53 CG2         13.7540   -37.6850   -31.6880 C.3          4 VAL330   0.0000
    54 H24         11.2816   -38.5241   -28.4395 H            4 VAL330   0.0000
    55 H25         13.1740   -38.9514   -29.5780 H            4 VAL330   0.0000
    56 H26         15.2988   -37.4291   -29.0501 H            4 VAL330   0.0000
    57 H27         12.0838   -36.9828   -30.6970 H            4 VAL330   0.0000
    58 H28         13.5173   -35.1266   -31.0181 H            4 VAL330   0.0000
    59 H29         13.1162   -35.2795   -29.4425 H            4 VAL330   0.0000
    60 HG13        14.5841   -35.7707   -29.9628 H            4 VAL330   0.0000
    61 H31         13.6587   -37.0703   -32.4710 H            4 VAL330   0.0000
    62 H32         14.7239   -37.8145   -31.4820 H            4 VAL330   0.0000
    63 H33         13.3385   -38.5683   -31.9052 H            4 VAL330   0.0000
    64 H34          8.7272   -39.0440   -18.5410 H            4 VAL330   0.0000
@<TRIPOS>BOND
     1    1    2       1
     2    2    5       1
     3    2    3       1
     4    5    6       1
     5    6    7       1
     6    7    8      ar
     7    7    9      ar
     8    3    4       2
     9    1   10       1
    10    1   11       1
    11    2   12       1
    12    3   17      am
    13    5   13       1
    14    5   14       1
    15    6   15       1
    16    6   16       1
    17   17   18       1
    18   18   21       1
    19   18   19       1
    20   21   22       1
    21   19   20       2
    22   22   27       1
    23   17   23       1
    24   18   24       1
    25   19   28      am
    26   21   25       1
    27   21   26       1
    28   28   29       1
    29   29   32       1
    30   29   30       1
    31   32   34       1
    32   32   33       1
    33   33   35       1
    34   30   31       2
    35   35   46       1
    36   28   36       1
    37   29   37       1
    38   30   47      am
    39   32   38       1
    40   33   39       1
    41   33   40       1
    42   34   41       1
    43   34   42       1
    44   34   43       1
    45   35   44       1
    46   35   45       1
    47   47   48       1
    48   48   51       1
    49   48   49       1
    50   51   52       1
    51   51   53       1
    52   49   50       2
    53   53   63       1
    54   47   54       1
    55   48   55       1
    56   49   56       1
    57   51   57       1
    58   52   58       1
    59   52   59       1
    60   52   60       1
    61   53   61       1
    62   53   62       1
    63    1   64       1
@<TRIPOS>SUBSTRUCTURE
     1 GLU327      1 RESIDUE           4 Y     GLU     0 **** GLU Y 327
     2 SER328     17 RESIDUE           4 Y     SER     0 **** SER Y 328
     3 ILE329     28 RESIDUE           4 Y     ILE     0 **** ILE Y 329
     4 VAL330     47 RESIDUE           4 Y     VAL     0 **** VAL Y 330
