@<TRIPOS>MOLECULE
2f98_NGV_2_ligand
   42    45     1     0     0
SMALL
NO_CHARGES


@<TRIPOS>ATOM
     1 O17         27.8050    36.2350    10.9690 O.2          1 NGV336   0.0000
     2 C14         28.2630    35.4150    11.7570 C.2          1 NGV336   0.0000
     3 O16         27.7830    35.3840    13.1270 O.3          1 NGV336   0.0000
     4 C15         26.6060    36.0420    13.5860 C.3          1 NGV336   0.0000
     5 C10         29.3790    34.4420    11.5030 C.ar         1 NGV336   0.0000
     6 C9          29.2080    33.1050    11.9100 C.ar         1 NGV336   0.0000
     7 C13         27.9210    32.5670    12.5050 C.3          1 NGV336   0.0000
     8 C8          30.2310    32.1930    11.7350 C.ar         1 NGV336   0.0000
     9 C19         30.6100    34.8590    10.9720 C.ar         1 NGV336   0.0000
    10 C20         31.6340    33.9210    10.8030 C.ar         1 NGV336   0.0000
    11 C7          31.4420    32.6030    11.1890 C.ar         1 NGV336   0.0000
    12 O22         32.3530    31.7620    11.0560 O.3          1 NGV336   0.0000
    13 C11         30.8410    36.1870    10.5660 C.ar         1 NGV336   0.0000
    14 C18         32.0760    36.5890    10.0180 C.ar         1 NGV336   0.0000
    15 C17         33.1250    35.6750     9.8440 C.ar         1 NGV336   0.0000
    16 C5          34.3490    36.0920     9.2970 C.2          1 NGV336   0.0000
    17 O20         35.2840    35.2520     9.1540 O.2          1 NGV336   0.0000
    18 C6          32.9420    34.3420    10.2230 C.ar         1 NGV336   0.0000
    19 O21         33.9290    33.4460    10.0790 O.3          1 NGV336   0.0000
    20 C12         32.2690    37.9220     9.6330 C.2          1 NGV336   0.0000
    21 O18         31.2920    38.8150     9.7930 O.2          1 NGV336   0.0000
    22 C21         33.4850    38.3350     9.0880 C.ar         1 NGV336   0.0000
    23 C1          33.6470    39.6720     8.7270 C.ar         1 NGV336   0.0000
    24 C2          34.8450    40.1210     8.1790 C.ar         1 NGV336   0.0000
    25 C3          35.8930    39.2240     8.0030 C.ar         1 NGV336   0.0000
    26 C16         34.5320    37.4260     8.9120 C.ar         1 NGV336   0.0000
    27 C4          35.7390    37.8820     8.3630 C.ar         1 NGV336   0.0000
    28 O19         36.7790    37.0660     8.1790 O.3          1 NGV336   0.0000
    29 H1          26.4888    35.8715    14.5644 H            1 NGV336   0.0000
    30 H2          26.6904    37.0256    13.4268 H            1 NGV336   0.0000
    31 H3          25.8125    35.6908    13.0890 H            1 NGV336   0.0000
    32 H4          28.0322    31.5961    12.7172 H            1 NGV336   0.0000
    33 H5          27.7058    33.0688    13.3428 H            1 NGV336   0.0000
    34 H6          27.1764    32.6813    11.8473 H            1 NGV336   0.0000
    35 H7          30.1003    31.2379    12.0011 H            1 NGV336   0.0000
    36 H8          33.2323    32.0348    10.6656 H            1 NGV336   0.0000
    37 H9          30.1106    36.8622    10.6689 H            1 NGV336   0.0000
    38 H10         34.8065    33.7269     9.6903 H            1 NGV336   0.0000
    39 H11         32.8939    40.3156     8.8634 H            1 NGV336   0.0000
    40 H12         34.9511    41.0795     7.9143 H            1 NGV336   0.0000
    41 H13         36.7599    39.5401     7.6175 H            1 NGV336   0.0000
    42 H14         36.7058    36.0995     8.4249 H            1 NGV336   0.0000
@<TRIPOS>BOND
     1    1    2       2
     2    2    3       1
     3    2    5       1
     4    3    4       1
     5    5    6      ar
     6    5    9      ar
     7    6    7       1
     8    6    8      ar
     9    8   11      ar
    10    9   10      ar
    11    9   13      ar
    12   10   11      ar
    13   10   18      ar
    14   11   12       1
    15   13   14      ar
    16   14   15      ar
    17   14   20       1
    18   15   16       1
    19   15   18      ar
    20   16   17       2
    21   16   26       1
    22   18   19       1
    23   20   21       2
    24   20   22       1
    25   22   23      ar
    26   22   26      ar
    27   23   24      ar
    28   24   25      ar
    29   25   27      ar
    30   26   27      ar
    31   27   28       1
    32    4   29       1
    33    4   30       1
    34    4   31       1
    35    7   32       1
    36    7   33       1
    37    7   34       1
    38    8   35       1
    39   12   36       1
    40   13   37       1
    41   19   38       1
    42   23   39       1
    43   24   40       1
    44   25   41       1
    45   28   42       1
@<TRIPOS>SUBSTRUCTURE
     1 NGV336      1 GROUP             4 B     NGV     0 **** NGV B 336
