@<TRIPOS>MOLECULE
4xoi_GTP_2_ligand
   44    46     1     0     0
SMALL
NO_CHARGES


@<TRIPOS>ATOM
     1 PG         -30.9050    -9.3100   -19.6680 P.3          1 GTP500   0.0000
     2 O1G        -29.5170    -8.9210   -20.0880 O.co2        1 GTP500   0.0000
     3 O2G        -31.0680   -10.7970   -19.7480 O.co2        1 GTP500  -1.0000
     4 O3G        -31.0800    -8.9230   -18.2120 O.co2        1 GTP500  -1.0000
     5 O3B        -32.0600    -8.5510   -20.4880 O.3          1 GTP500   0.0000
     6 PB         -32.5000    -8.8510   -22.0090 P.3          1 GTP500   0.0000
     7 O1B        -31.5270    -8.0830   -22.8620 O.co2        1 GTP500   0.0000
     8 O2B        -32.5780   -10.3080   -22.3340 O.co2        1 GTP500  -1.0000
     9 O3A        -33.9630    -8.2150   -22.1910 O.3          1 GTP500   0.0000
    10 PA         -35.3430    -9.0340   -22.3000 P.3          1 GTP500   0.0000
    11 O1A        -35.5280    -9.5930   -23.6890 O.co2        1 GTP500   0.0000
    12 O2A        -35.4420   -10.0580   -21.1920 O.co2        1 GTP500  -1.0000
    13 O5'        -36.4300    -7.8740   -22.0980 O.3          1 GTP500   0.0000
    14 C5'        -36.0790    -6.6410   -21.5050 C.3          1 GTP500   0.0000
    15 C4'        -37.3570    -5.8370   -21.2690 C.3          1 GTP500   0.0000
    16 O4'        -37.6550    -5.1990   -22.4930 O.3          1 GTP500   0.0000
    17 C3'        -38.5650    -6.6990   -20.9440 C.3          1 GTP500   0.0000
    18 O3'        -39.4170    -5.9420   -20.1160 O.3          1 GTP500   0.0000
    19 C2'        -39.2540    -6.8680   -22.2800 C.3          1 GTP500   0.0000
    20 O2'        -40.6510    -7.0580   -22.1760 O.3          1 GTP500   0.0000
    21 C1'        -38.9240    -5.5620   -22.9800 C.3          1 GTP500   0.0000
    22 N9         -38.8200    -5.7670   -24.4340 N.pl3        1 GTP500   0.0000
    23 C8         -38.1390    -6.7730   -25.0810 C.2          1 GTP500   0.0000
    24 N7         -38.2900    -6.6060   -26.4130 N.2          1 GTP500   0.0000
    25 C5         -39.0510    -5.5010   -26.6190 C.2          1 GTP500   0.0000
    26 C6         -39.5010    -4.8750   -27.7710 C.2          1 GTP500   0.0000
    27 O6         -39.2120    -5.3410   -28.8750 O.2          1 GTP500   0.0000
    28 N1         -40.2840    -3.7410   -27.6630 N.pl3        1 GTP500   0.0000
    29 C2         -40.6060    -3.2260   -26.4150 C.2          1 GTP500   0.0000
    30 N2         -41.3540    -2.1280   -26.3050 N.pl3        1 GTP500   0.0000
    31 N3         -40.1540    -3.8530   -25.2760 N.2          1 GTP500   0.0000
    32 C4         -39.3920    -4.9700   -25.3810 C.2          1 GTP500   0.0000
    33 H5'1       -35.4693    -6.1346   -22.1148 H            1 GTP500   0.0000
    34 H5'2       -35.6175    -6.8050   -20.6331 H            1 GTP500   0.0000
    35 H4'        -37.2118    -5.1576   -20.5498 H            1 GTP500   0.0000
    36 H3'        -38.3103    -7.5739   -20.5321 H            1 GTP500   0.0000
    37 H5         -40.2245    -6.4843   -19.8839 H            1 GTP500   0.0000
    38 H2'        -38.8444    -7.6322   -22.7781 H            1 GTP500   0.0000
    39 H7         -40.9922    -6.5850   -21.3637 H            1 GTP500   0.0000
    40 H1'        -39.6033    -4.8601   -22.7657 H            1 GTP500   0.0000
    41 H9         -37.6197    -7.5046   -24.6393 H            1 GTP500   0.0000
    42 H10        -40.6205    -3.2889   -28.4891 H            1 GTP500   0.0000
    43 H11        -41.5800    -1.7655   -25.4008 H            1 GTP500   0.0000
    44 H12        -41.6891    -1.6669   -27.1266 H            1 GTP500   0.0000
@<TRIPOS>BOND
     1    1    2      ar
     2    1    3      ar
     3    1    4      ar
     4    1    5       1
     5    5    6       1
     6    6    7      ar
     7    6    8      ar
     8    6    9       1
     9    9   10       1
    10   10   11      ar
    11   10   12      ar
    12   10   13       1
    13   13   14       1
    14   14   15       1
    15   15   16       1
    16   15   17       1
    17   16   21       1
    18   17   18       1
    19   17   19       1
    20   19   20       1
    21   19   21       1
    22   21   22       1
    23   22   23       1
    24   22   32       1
    25   23   24       2
    26   24   25       1
    27   25   26       1
    28   25   32       2
    29   26   27       2
    30   26   28       1
    31   28   29       1
    32   29   30       1
    33   29   31       2
    34   31   32       1
    35   30   44       1
    36   30   43       1
    37   28   42       1
    38   23   41       1
    39   14   33       1
    40   14   34       1
    41   15   35       1
    42   17   36       1
    43   18   37       1
    44   19   38       1
    45   20   39       1
    46   21   40       1
@<TRIPOS>SUBSTRUCTURE
     1 GTP500      1 GROUP             4 C     GTP     0 **** GTP C 500
