@<TRIPOS>MOLECULE
3k47_D09_1_ligand
   39    41     1     0     0
SMALL
NO_CHARGES


@<TRIPOS>ATOM
     1 C'1         -6.7100     1.0210    13.3430 C.ar         1 D09188   0.0000
     2 C'2         -7.4320     0.7900    14.5490 C.ar         1 D09188   0.0000
     3 C'3         -8.8100     1.0490    14.5860 C.ar         1 D09188   0.0000
     4 C'4         -9.4690     1.5000    13.4240 C.ar         1 D09188   0.0000
     5 C'5         -8.7730     1.7120    12.2130 C.ar         1 D09188   0.0000
     6 C'6         -7.3800     1.4640    12.1810 C.ar         1 D09188   0.0000
     7 N1'          0.2930     3.3510    13.6210 N.ar         1 D09188   0.0000
     8 C10         -4.8480    -0.6710    13.0480 C.3          1 D09188   0.0000
     9 C11         -5.3310     0.7620    13.3440 C.2          1 D09188   0.0000
    10 C13         -6.9180    -0.9120    16.3950 C.3          1 D09188   0.0000
    11 O13         -6.7390     0.3700    15.6780 O.3          1 D09188   0.0000
    12 C2'          0.0510     4.6490    13.8750 C.ar         1 D09188   0.0000
    13 N2'          1.0290     5.5040    13.9220 N.pl3        1 D09188   0.0000
    14 N3'         -1.2070     5.0990    14.0440 N.ar         1 D09188   1.0000
    15 C4'         -2.2650     4.2510    13.9900 C.ar         1 D09188   0.0000
    16 N4'         -3.4840     4.7630    14.2020 N.pl3        1 D09188   0.0000
    17 C5'         -2.0390     2.8800    13.7270 C.ar         1 D09188   0.0000
    18 C6'         -2.8750     1.7640    13.6000 C.2          1 D09188   0.0000
    19 C7'         -2.1020     0.7010    13.3120 C.2          1 D09188   0.0000
    20 C8'         -0.7170     2.4410    13.5330 C.ar         1 D09188   0.0000
    21 O8'         -0.7570     1.0640    13.2760 O.2          1 D09188   0.0000
    22 C9'         -4.3960     1.8940    13.7360 C.2          1 D09188   0.0000
    23 H'3         -9.3233     0.9143    15.4336 H            1 D09188   0.0000
    24 H'4        -10.4532     1.6741    13.4579 H            1 D09188   0.0000
    25 H'5         -9.2541     2.0304    11.3962 H            1 D09188   0.0000
    26 H'6         -6.8684     1.6028    11.3331 H            1 D09188   0.0000
    27 H5          -3.8491    -0.7001    13.0837 H            1 D09188   0.0000
    28 H6          -5.2244    -1.2973    13.7307 H            1 D09188   0.0000
    29 H7          -5.1571    -0.9456    12.1375 H            1 D09188   0.0000
    30 H8          -6.2888    -0.9504    17.1713 H            1 D09188   0.0000
    31 H9          -7.8594    -0.9806    16.7252 H            1 D09188   0.0000
    32 H10         -6.7267    -1.6713    15.7730 H            1 D09188   0.0000
    33 H2'1         0.8418     6.4679    14.1114 H            1 D09188   0.0000
    34 H2'2         1.9686     5.1979    13.7687 H            1 D09188   0.0000
    35 H4'1        -4.2881     4.1693    14.1703 H            1 D09188   0.0000
    36 H4'2        -3.5903     5.7390    14.3920 H            1 D09188   0.0000
    37 H7'         -2.4457    -0.2234    13.1464 H            1 D09188   0.0000
    38 H9'         -4.7828     2.7449    14.0915 H            1 D09188   0.0000
    39 H3'         -1.3637     6.0723    14.2117 H            1 D09188   0.0000
@<TRIPOS>BOND
     1    1    2      ar
     2    1    6      ar
     3    1    9       1
     4    2    3      ar
     5    2   11       1
     6    3    4      ar
     7    4    5      ar
     8    5    6      ar
     9    7   12      ar
    10    7   20      ar
    11    8    9       1
    12    9   22       2
    13   10   11       1
    14   12   13       1
    15   12   14      ar
    16   14   15      ar
    17   15   16       1
    18   15   17      ar
    19   17   18       1
    20   17   20      ar
    21   18   19       2
    22   18   22       1
    23   19   21       1
    24   20   21       1
    25    3   23       1
    26    4   24       1
    27    5   25       1
    28    6   26       1
    29    8   27       1
    30    8   28       1
    31    8   29       1
    32   10   30       1
    33   10   31       1
    34   10   32       1
    35   13   33       1
    36   13   34       1
    37   16   35       1
    38   16   36       1
    39   19   37       1
    40   22   38       1
    41   14   39       1
@<TRIPOS>SUBSTRUCTURE
     1 D09188      1 GROUP             4 A     D09     0 **** D09 A 188
