@<TRIPOS>MOLECULE
3vyw_SAM_6_ligand
   50    52     1     0     0
SMALL
NO_CHARGES


@<TRIPOS>ATOM
     1 N           56.8310   -19.8520   -41.5400 N.4          1 SAM401   1.0000
     2 CA          57.0500   -18.6410   -40.8170 C.3          1 SAM401   0.0000
     3 C           56.6260   -18.8460   -39.4110 C.2          1 SAM401   0.0000
     4 O           56.7260   -17.9610   -38.5700 O.co2        1 SAM401   0.0000
     5 OXT         56.2260   -19.9500   -39.1210 O.co2        1 SAM401  -1.0000
     6 CB          56.3550   -17.5150   -41.5470 C.3          1 SAM401   0.0000
     7 CG          57.2660   -17.1040   -42.6940 C.3          1 SAM401   0.0000
     8 SD          57.0430   -15.5720   -43.2100 S.3          1 SAM401   1.0000
     9 CE          55.5400   -15.4800   -43.8160 C.3          1 SAM401   0.0000
    10 C5'         58.0350   -15.2710   -44.5090 C.3          1 SAM401   0.0000
    11 C4'         59.5450   -15.4600   -44.3090 C.3          1 SAM401   0.0000
    12 O4'         60.1860   -15.7170   -45.5460 O.3          1 SAM401   0.0000
    13 C3'         60.2550   -14.2550   -43.7560 C.3          1 SAM401   0.0000
    14 O3'         61.0870   -14.7040   -42.7050 O.3          1 SAM401   0.0000
    15 C2'         61.0780   -13.7570   -44.9140 C.3          1 SAM401   0.0000
    16 O2'         62.2580   -13.0330   -44.6090 O.3          1 SAM401   0.0000
    17 C1'         61.4180   -15.0340   -45.5820 C.3          1 SAM401   0.0000
    18 N9          61.8700   -14.7590   -46.9450 N.pl3        1 SAM401   0.0000
    19 C8          61.3130   -13.9190   -47.7870 C.2          1 SAM401   0.0000
    20 N7          61.9670   -13.9030   -48.9300 N.2          1 SAM401   0.0000
    21 C5          62.9640   -14.7430   -48.8420 C.ar         1 SAM401   0.0000
    22 C6          64.0400   -15.2100   -49.7110 C.ar         1 SAM401   0.0000
    23 N6          64.2020   -14.7420   -50.9490 N.pl3        1 SAM401   0.0000
    24 N1          64.8710   -16.0990   -49.2020 N.ar         1 SAM401   0.0000
    25 C2          64.7480   -16.5620   -47.9800 C.ar         1 SAM401   0.0000
    26 N3          63.8010   -16.1910   -47.1570 N.ar         1 SAM401   0.0000
    27 C4          62.9020   -15.2970   -47.5240 C.ar         1 SAM401   0.0000
    28 H1          56.1930   -19.6812   -42.2908 H            1 SAM401   0.0000
    29 H2          57.6999   -20.1815   -41.9093 H            1 SAM401   0.0000
    30 HA          58.0320   -18.4521   -40.8198 H            1 SAM401   0.0000
    31 HB1         56.2100   -16.7423   -40.9291 H            1 SAM401   0.0000
    32 HB2         55.4741   -17.8275   -41.9024 H            1 SAM401   0.0000
    33 HG1         57.0998   -17.7212   -43.4630 H            1 SAM401   0.0000
    34 HG2         58.2142   -17.1977   -42.3903 H            1 SAM401   0.0000
    35 HE1         55.3687   -14.5506   -44.1429 H            1 SAM401   0.0000
    36 HE2         55.4471   -16.1231   -44.5761 H            1 SAM401   0.0000
    37 HE3         54.8782   -15.7096   -43.1023 H            1 SAM401   0.0000
    38 H5'1        57.8864   -14.3215   -44.7852 H            1 SAM401   0.0000
    39 H5'2        57.7525   -15.8815   -45.2489 H            1 SAM401   0.0000
    40 H4'         59.6970   -16.2360   -43.6969 H            1 SAM401   0.0000
    41 H3'         59.6080   -13.5608   -43.4405 H            1 SAM401   0.0000
    42 H15         61.9866   -14.9427   -43.0708 H            1 SAM401   0.0000
    43 H2'         60.5006   -13.2096   -45.5198 H            1 SAM401   0.0000
    44 H17         62.8743   -13.6104   -44.0734 H            1 SAM401   0.0000
    45 H1'         62.1169   -15.5310   -45.0676 H            1 SAM401   0.0000
    46 H19         60.5032   -13.3672   -47.5876 H            1 SAM401   0.0000
    47 H20         64.9497   -15.0832   -51.5187 H            1 SAM401   0.0000
    48 H21         63.5758   -14.0498   -51.3078 H            1 SAM401   0.0000
    49 H22         65.4147   -17.2353   -47.6605 H            1 SAM401   0.0000
    50 H23         56.4467   -20.5417   -40.9264 H            1 SAM401   0.0000
@<TRIPOS>BOND
     1    1    2       1
     2    2    3       1
     3    2    6       1
     4    3    4      ar
     5    3    5      ar
     6    6    7       1
     7    7    8       1
     8    8    9       1
     9    8   10       1
    10   10   11       1
    11   11   12       1
    12   11   13       1
    13   12   17       1
    14   13   14       1
    15   13   15       1
    16   15   16       1
    17   15   17       1
    18   17   18       1
    19   18   19       1
    20   18   27       1
    21   19   20       2
    22   20   21       1
    23   21   22      ar
    24   21   27      ar
    25   22   23       1
    26   22   24      ar
    27   24   25      ar
    28   25   26      ar
    29   26   27      ar
    30    1   28       1
    31    1   29       1
    32    2   30       1
    33    1   50       1
    34    6   31       1
    35    6   32       1
    36    7   33       1
    37    7   34       1
    38    9   35       1
    39    9   36       1
    40    9   37       1
    41   10   38       1
    42   10   39       1
    43   11   40       1
    44   13   41       1
    45   14   42       1
    46   15   43       1
    47   16   44       1
    48   17   45       1
    49   19   46       1
    50   23   47       1
    51   23   48       1
    52   25   49       1
@<TRIPOS>SUBSTRUCTURE
     1 SAM401      1 GROUP             4 D     SAM     0 **** SAM D 401
