@<TRIPOS>MOLECULE
2yna_IMD_1_ligand
    9     9     1     0     0
SMALL
NO_CHARGES


@<TRIPOS>ATOM
     1 N1          30.2390    43.7100    12.2790 N.pl3        1 IMD1308   0.0000
     2 C2          29.7020    44.8630    12.7020 C.2          1 IMD1308   0.0000
     3 N3          30.0990    45.1320    13.9280 N.2          1 IMD1308   0.0000
     4 C4          30.9170    44.0960    14.3110 C.2          1 IMD1308   0.0000
     5 C5          31.0070    43.2110    13.2880 C.2          1 IMD1308   0.0000
     6 H1          30.1006    43.2904    11.3819 H            1 IMD1308   0.0000
     7 H2          29.0867    45.4377    12.1625 H            1 IMD1308   0.0000
     8 H3          31.3708    44.0094    15.1979 H            1 IMD1308   0.0000
     9 H4          31.5328    42.3605    13.2762 H            1 IMD1308   0.0000
@<TRIPOS>BOND
     1    1    2       1
     2    1    5       1
     3    2    3       2
     4    3    4       1
     5    4    5       2
     6    1    6       1
     7    2    7       1
     8    4    8       1
     9    5    9       1
@<TRIPOS>SUBSTRUCTURE
     1 IMD1308     1 GROUP             4 A     IMD     0 **** IMD A1308
