@<TRIPOS>MOLECULE
2vxo_XMP_2_ligand
   34    36     1     0     0
SMALL
NO_CHARGES


@<TRIPOS>ATOM
     1 P            3.3540   -10.4270   -20.9820 P.3          1 XMP1694   0.0000
     2 O1P          3.9970    -9.1970   -20.4150 O.co2        1 XMP1694   0.0000
     3 O2P          4.1440   -11.6890   -20.7500 O.co2        1 XMP1694  -1.0000
     4 O5'          2.0220   -10.6540   -20.0920 O.3          1 XMP1694   0.0000
     5 O3P          2.8120   -10.2670   -22.3760 O.co2        1 XMP1694  -1.0000
     6 C5'          1.9870   -10.4290   -18.6700 C.3          1 XMP1694   0.0000
     7 C4'          0.5520   -10.3690   -18.1300 C.3          1 XMP1694   0.0000
     8 O4'          0.0010    -9.0390   -18.2000 O.3          1 XMP1694   0.0000
     9 C1'         -1.1330    -9.0030   -19.0780 C.3          1 XMP1694   0.0000
    10 N9          -0.9880    -7.8180   -19.9350 N.pl3        1 XMP1694   0.0000
    11 C4          -1.6680    -6.6960   -19.7530 C.2          1 XMP1694   0.0000
    12 N3          -2.6090    -6.2920   -18.8820 N.pl3        1 XMP1694   0.0000
    13 N1          -2.7460    -4.1670   -19.8880 N.pl3        1 XMP1694  -1.0000
    14 C2          -3.1340    -5.0590   -18.9550 C.2          1 XMP1694   0.0000
    15 O2          -4.0140    -4.7320   -18.1310 O.2          1 XMP1694   0.0000
    16 C6          -1.8170    -4.4460   -20.8110 C.2          1 XMP1694   0.0000
    17 O6          -1.4810    -3.6030   -21.6680 O.2          1 XMP1694   0.0000
    18 C5          -1.1890    -5.7820   -20.7920 C.2          1 XMP1694   0.0000
    19 N7          -0.2610    -6.4320   -21.5130 N.2          1 XMP1694   0.0000
    20 C8          -0.1380    -7.6650   -20.9750 C.2          1 XMP1694   0.0000
    21 C2'         -1.0790   -10.2720   -19.8990 C.3          1 XMP1694   0.0000
    22 O2'         -2.3890   -10.6870   -20.2520 O.3          1 XMP1694   0.0000
    23 C3'         -0.4030   -11.2340   -18.9380 C.3          1 XMP1694   0.0000
    24 O3'         -1.3640   -11.7460   -18.0250 O.3          1 XMP1694   0.0000
    25 H5'1         2.4435    -9.5622   -18.4694 H            1 XMP1694   0.0000
    26 H5'2         2.4723   -11.1747   -18.2135 H            1 XMP1694   0.0000
    27 H4'          0.5469   -10.6761   -17.1784 H            1 XMP1694   0.0000
    28 H1'         -1.9836    -8.9576   -18.5541 H            1 XMP1694   0.0000
    29 H5          -2.9224    -6.9195   -18.1692 H            1 XMP1694   0.0000
    30 H6           0.4945    -8.3676   -21.3010 H            1 XMP1694   0.0000
    31 H2'         -0.5190   -10.1391   -20.7168 H            1 XMP1694   0.0000
    32 H8          -2.4740   -10.7110   -21.2481 H            1 XMP1694   0.0000
    33 H3'          0.0772   -11.9660   -19.4214 H            1 XMP1694   0.0000
    34 H10         -1.6845   -12.6380   -18.3438 H            1 XMP1694   0.0000
@<TRIPOS>BOND
     1    1    2      ar
     2    1    3      ar
     3    1    4       1
     4    1    5      ar
     5    4    6       1
     6    6    7       1
     7    7    8       1
     8    7   23       1
     9    8    9       1
    10    9   10       1
    11    9   21       1
    12   10   11       1
    13   10   20       1
    14   11   12       1
    15   11   18       2
    16   12   14       1
    17   13   14       1
    18   13   16       1
    19   14   15       2
    20   16   17       2
    21   16   18       1
    22   18   19       1
    23   19   20       2
    24   21   22       1
    25   21   23       1
    26   23   24       1
    27   24   34       1
    28   23   33       1
    29    6   25       1
    30    6   26       1
    31    7   27       1
    32    9   28       1
    33   12   29       1
    34   22   32       1
    35   20   30       1
    36   21   31       1
@<TRIPOS>SUBSTRUCTURE
     1 XMP1694     1 GROUP             4 B     XMP     0 **** XMP B1694
