@<TRIPOS>MOLECULE
2aru_ATP_1_ligand
   43    45     1     0     0
SMALL
NO_CHARGES


@<TRIPOS>ATOM
     1 PG          13.3180    29.7740    29.6010 P.3          1 ATP1065   0.0000
     2 O1G         14.5660    30.3430    28.9290 O.co2        1 ATP1065   0.0000
     3 O2G         12.5580    28.5240    29.0940 O.co2        1 ATP1065  -1.0000
     4 O3G         12.5260    30.7410    30.5180 O.co2        1 ATP1065  -1.0000
     5 PB          12.7680    30.0870    26.7110 P.3          1 ATP1065   0.0000
     6 O1B         12.6240    28.6190    26.3840 O.co2        1 ATP1065   0.0000
     7 O2B         14.1800    30.5770    26.4580 O.co2        1 ATP1065  -1.0000
     8 O3B         12.4190    30.4230    28.3030 O.3          1 ATP1065   0.0000
     9 PA          10.2850    31.1380    25.4650 P.3          1 ATP1065   0.0000
    10 O1A          9.9000    32.5820    25.3010 O.co2        1 ATP1065   0.0000
    11 O2A          9.9350    30.2980    24.2720 O.co2        1 ATP1065  -1.0000
    12 O3A         11.8730    31.0380    25.7850 O.3          1 ATP1065   0.0000
    13 O5'          9.4680    30.6080    26.7140 O.3          1 ATP1065   0.0000
    14 C5'          9.5670    29.2140    27.0270 C.3          1 ATP1065   0.0000
    15 C4'          8.5000    28.4100    26.2580 C.3          1 ATP1065   0.0000
    16 O4'          8.9000    27.0160    26.3560 O.3          1 ATP1065   0.0000
    17 C3'          7.0710    28.4410    26.8410 C.3          1 ATP1065   0.0000
    18 O3'          6.2810    29.5290    26.3220 O.3          1 ATP1065   0.0000
    19 C2'          6.5460    27.0570    26.4830 C.3          1 ATP1065   0.0000
    20 O2'          5.9950    26.9920    25.1600 O.3          1 ATP1065   0.0000
    21 C1'          7.7830    26.1530    26.5620 C.3          1 ATP1065   0.0000
    22 N9           8.0610    25.6210    27.9060 N.pl3        1 ATP1065   0.0000
    23 C8           7.2760    25.6640    29.0620 C.2          1 ATP1065   0.0000
    24 N7           7.8400    25.1110    30.1060 N.2          1 ATP1065   0.0000
    25 C5           9.0800    24.6720    29.6260 C.ar         1 ATP1065   0.0000
    26 C6          10.1670    24.0120    30.2480 C.ar         1 ATP1065   0.0000
    27 N6          10.1540    23.6780    31.5480 N.pl3        1 ATP1065   0.0000
    28 N1          11.2830    23.7100    29.4720 N.ar         1 ATP1065   0.0000
    29 C2          11.2920    24.0560    28.1600 C.ar         1 ATP1065   0.0000
    30 N3          10.3180    24.6870    27.4760 N.ar         1 ATP1065   0.0000
    31 C4           9.2290    24.9710    28.2730 C.ar         1 ATP1065   0.0000
    32 H5'1         9.4300    29.0869    28.0094 H            1 ATP1065   0.0000
    33 H5'2        10.4755    28.8832    26.7716 H            1 ATP1065   0.0000
    34 H4'          8.4838    28.6939    25.2993 H            1 ATP1065   0.0000
    35 H3'          7.1257    28.5225    27.8362 H            1 ATP1065   0.0000
    36 H5           6.3971    30.3330    26.9051 H            1 ATP1065   0.0000
    37 H2'          5.8640    26.7647    27.1534 H            1 ATP1065   0.0000
    38 H7           5.6675    26.0644    24.9805 H            1 ATP1065   0.0000
    39 H1'          7.7502    25.4245    25.8778 H            1 ATP1065   0.0000
    40 H9           6.3667    26.0793    29.0890 H            1 ATP1065   0.0000
    41 H10         10.9410    23.2121    31.9524 H            1 ATP1065   0.0000
    42 H11          9.3573    23.8950    32.1121 H            1 ATP1065   0.0000
    43 H12         12.1136    23.8157    27.6430 H            1 ATP1065   0.0000
@<TRIPOS>BOND
     1    1    2      ar
     2    1    3      ar
     3    1    4      ar
     4    1    8       1
     5    5    6      ar
     6    5    7      ar
     7    5    8       1
     8    5   12       1
     9    9   10      ar
    10    9   11      ar
    11    9   12       1
    12    9   13       1
    13   13   14       1
    14   14   15       1
    15   15   16       1
    16   15   17       1
    17   16   21       1
    18   17   18       1
    19   17   19       1
    20   19   20       1
    21   19   21       1
    22   21   22       1
    23   22   23       1
    24   22   31       1
    25   23   24       2
    26   24   25       1
    27   25   26      ar
    28   25   31      ar
    29   26   27       1
    30   26   28      ar
    31   28   29      ar
    32   29   30      ar
    33   30   31      ar
    34   29   43       1
    35   27   42       1
    36   27   41       1
    37   23   40       1
    38   14   32       1
    39   14   33       1
    40   15   34       1
    41   17   35       1
    42   18   36       1
    43   19   37       1
    44   20   38       1
    45   21   39       1
@<TRIPOS>SUBSTRUCTURE
     1 ATP1065     1 GROUP             4 A     ATP     0 **** ATP A1065
