@<TRIPOS>MOLECULE
3gnq_NAD_4_ligand
   70    74     1     0     0
SMALL
NO_CHARGES


@<TRIPOS>ATOM
     1 PA          42.7320   -46.4890    23.0910 P.3          1 NAD901   0.0000
     2 O1A         42.0880   -47.7790    23.4440 O.co2        1 NAD901   0.0000
     3 O2A         42.4420   -45.5070    24.1350 O.co2        1 NAD901  -1.0000
     4 O5B         42.2230   -45.9820    21.6400 O.3          1 NAD901   0.0000
     5 C5B         42.2070   -46.8640    20.5310 C.3          1 NAD901   0.0000
     6 C4B         40.9850   -46.6350    19.6400 C.3          1 NAD901   0.0000
     7 O4B         40.9960   -47.4930    18.5100 O.3          1 NAD901   0.0000
     8 C3B         39.6550   -46.8550    20.3680 C.3          1 NAD901   0.0000
     9 O3B         38.8070   -45.7400    20.2110 O.3          1 NAD901   0.0000
    10 C2B         39.0740   -48.0800    19.6900 C.3          1 NAD901   0.0000
    11 O2B         37.6660   -48.0930    19.6790 O.3          1 NAD901   0.0000
    12 C1B         39.6740   -47.9540    18.2950 C.3          1 NAD901   0.0000
    13 N9A         39.7020   -49.1900    17.4960 N.pl3        1 NAD901   0.0000
    14 C8A         39.8210   -50.4900    17.9190 C.2          1 NAD901   0.0000
    15 N7A         39.8080   -51.2850    16.8280 N.2          1 NAD901   0.0000
    16 C5A         39.6920   -50.5170    15.7210 C.ar         1 NAD901   0.0000
    17 C6A         39.6420   -50.8250    14.3630 C.ar         1 NAD901   0.0000
    18 N6A         40.2880   -51.9190    13.9740 N.pl3        1 NAD901   0.0000
    19 N1A         39.5090   -49.7910    13.4480 N.ar         1 NAD901   0.0000
    20 C2A         39.4480   -48.4680    13.8650 C.ar         1 NAD901   0.0000
    21 N3A         39.5020   -48.1840    15.2170 N.ar         1 NAD901   0.0000
    22 C4A         39.6260   -49.1920    16.1270 C.ar         1 NAD901   0.0000
    23 O3          44.3340   -46.6810    22.9830 O.3          1 NAD901   0.0000
    24 PN          45.4050   -45.4830    22.7810 P.3          1 NAD901   0.0000
    25 O1N         45.8150   -44.9200    24.0940 O.co2        1 NAD901   0.0000
    26 O2N         44.9290   -44.5740    21.6970 O.co2        1 NAD901  -1.0000
    27 O5D         46.6660   -46.3310    22.2480 O.3          1 NAD901   0.0000
    28 C5D         46.7150   -46.7420    20.8960 C.3          1 NAD901   0.0000
    29 C4D         48.1250   -47.1640    20.5080 C.3          1 NAD901   0.0000
    30 O4D         49.0420   -46.1000    20.7020 O.3          1 NAD901   0.0000
    31 C3D         48.6340   -48.3420    21.3250 C.3          1 NAD901   0.0000
    32 O3D         49.2960   -49.2260    20.4590 O.3          1 NAD901   0.0000
    33 C2D         49.6200   -47.7280    22.2900 C.3          1 NAD901   0.0000
    34 O2D         50.6610   -48.6040    22.6510 O.3          1 NAD901   0.0000
    35 C1D         50.1380   -46.5390    21.4950 C.3          1 NAD901   0.0000
    36 N1N         50.6090   -45.4360    22.3480 N.ar         1 NAD901   1.0000
    37 C2N         49.7500   -44.9180    23.2790 C.ar         1 NAD901   0.0000
    38 C3N         50.1390   -43.8740    24.0990 C.ar         1 NAD901   0.0000
    39 C7N         49.3990   -43.7020    25.4090 C.2          1 NAD901   0.0000
    40 O7N         50.0910   -43.1970    26.5260 O.2          1 NAD901   0.0000
    41 N7N         48.1060   -44.0200    25.4920 N.am         1 NAD901   0.0000
    42 C4N         51.4260   -43.3490    23.9410 C.ar         1 NAD901   0.0000
    43 C5N         52.2980   -43.8740    22.9800 C.ar         1 NAD901   0.0000
    44 C6N         51.8750   -44.9260    22.1790 C.ar         1 NAD901   0.0000
    45 H5B1        42.1907   -47.8058    20.8668 H            1 NAD901   0.0000
    46 H5B2        43.0346   -46.7176    19.9891 H            1 NAD901   0.0000
    47 H4B         41.0095   -45.6899    19.3141 H            1 NAD901   0.0000
    48 H3B         39.8150   -47.0369    21.3382 H            1 NAD901   0.0000
    49 H5          38.9964   -45.2980    19.3342 H            1 NAD901   0.0000
    50 H2B         39.4174   -48.9080    20.1334 H            1 NAD901   0.0000
    51 H7          37.3439   -48.9214    19.2207 H            1 NAD901   0.0000
    52 H1B         39.1680   -47.2554    17.7891 H            1 NAD901   0.0000
    53 H8A         39.9029   -50.7947    18.8679 H            1 NAD901   0.0000
    54 H6A1        40.2842   -52.1858    13.0103 H            1 NAD901   0.0000
    55 H6A2        40.7780   -52.4755    14.6450 H            1 NAD901   0.0000
    56 H2A         39.3660   -47.7296    13.1956 H            1 NAD901   0.0000
    57 H5D1        46.4281   -45.9825    20.3122 H            1 NAD901   0.0000
    58 H5D2        46.0943   -47.5152    20.7660 H            1 NAD901   0.0000
    59 H4D         48.1290   -47.4187    19.5410 H            1 NAD901   0.0000
    60 H3D         47.8874   -48.7983    21.8092 H            1 NAD901   0.0000
    61 H17         48.8439   -50.1176    20.4834 H            1 NAD901   0.0000
    62 H2D         49.1428   -47.4092    23.1089 H            1 NAD901   0.0000
    63 H19         51.2786   -48.1431    23.2883 H            1 NAD901   0.0000
    64 H1D         50.8820   -46.8377    20.8973 H            1 NAD901   0.0000
    65 H2N         48.8297   -45.2989    23.3676 H            1 NAD901   0.0000
    66 H7N1        47.6177   -43.9063    26.3572 H            1 NAD901   0.0000
    67 H7N2        47.6251   -44.3721    24.6890 H            1 NAD901   0.0000
    68 H4N         51.7260   -42.5911    24.5203 H            1 NAD901   0.0000
    69 H5N         53.2169   -43.4948    22.8715 H            1 NAD901   0.0000
    70 H6N         52.4851   -45.3094    21.4856 H            1 NAD901   0.0000
@<TRIPOS>BOND
     1    1    2      ar
     2    1    3      ar
     3    1    4       1
     4    1   23       1
     5    4    5       1
     6    5    6       1
     7    6    7       1
     8    6    8       1
     9    7   12       1
    10    8    9       1
    11    8   10       1
    12   10   11       1
    13   10   12       1
    14   12   13       1
    15   13   14       1
    16   13   22       1
    17   14   15       2
    18   15   16       1
    19   16   17      ar
    20   16   22      ar
    21   17   18       1
    22   17   19      ar
    23   19   20      ar
    24   20   21      ar
    25   21   22      ar
    26   23   24       1
    27   24   25      ar
    28   24   26      ar
    29   24   27       1
    30   27   28       1
    31   28   29       1
    32   29   30       1
    33   29   31       1
    34   30   35       1
    35   31   32       1
    36   31   33       1
    37   33   34       1
    38   33   35       1
    39   35   36       1
    40   36   37      ar
    41   36   44      ar
    42   37   38      ar
    43   38   39       1
    44   38   42      ar
    45   39   40       2
    46   39   41      am
    47   42   43      ar
    48   43   44      ar
    49   44   70       1
    50    5   45       1
    51    5   46       1
    52    6   47       1
    53    8   48       1
    54    9   49       1
    55   10   50       1
    56   11   51       1
    57   12   52       1
    58   14   53       1
    59   18   54       1
    60   18   55       1
    61   20   56       1
    62   43   69       1
    63   28   57       1
    64   28   58       1
    65   29   59       1
    66   31   60       1
    67   32   61       1
    68   33   62       1
    69   34   63       1
    70   35   64       1
    71   37   65       1
    72   41   66       1
    73   41   67       1
    74   42   68       1
@<TRIPOS>SUBSTRUCTURE
     1 NAD901      1 GROUP             4 E     NAD     0 **** NAD E 901
