@<TRIPOS>MOLECULE
4j1w_FFQ_1_ligand
   15    14     1     0     0
SMALL
NO_CHARGES


@<TRIPOS>ATOM
     1 C1          99.4580    52.6720    48.8390 C.3          1 FFQ202   0.0000
     2 O1         100.0650    51.3080    46.9270 O.3          1 FFQ202   0.0000
     3 P1          97.7650    52.6450    46.5350 P.3          1 FFQ202   0.0000
     4 C2          98.9680    51.7880    47.6860 C.3          1 FFQ202   0.0000
     5 O2          97.3970    53.9970    47.0590 O.co2        1 FFQ202   0.0000
     6 C3         100.4370    51.9490    49.7820 C.3          1 FFQ202   0.0000
     7 O3          98.4240    52.7800    45.0610 O.co2        1 FFQ202  -1.0000
     8 O4          96.4570    51.7250    46.4250 O.co2        1 FFQ202  -1.0000
     9 H1          98.6651    52.9694    49.3709 H            1 FFQ202   0.0000
    10 H2          99.9194    53.4710    48.4533 H            1 FFQ202   0.0000
    11 H3         100.8108    51.9733    46.9615 H            1 FFQ202   0.0000
    12 H4          98.5014    50.9977    48.0832 H            1 FFQ202   0.0000
    13 H5         100.7204    52.5729    50.5104 H            1 FFQ202   0.0000
    14 H6          99.9861    51.1515    50.1829 H            1 FFQ202   0.0000
    15 H7         101.2404    51.6531    49.2653 H            1 FFQ202   0.0000
@<TRIPOS>BOND
     1    1    4       1
     2    1    6       1
     3    2    4       1
     4    3    4       1
     5    3    5      ar
     6    3    7      ar
     7    3    8      ar
     8    1    9       1
     9    1   10       1
    10    2   11       1
    11    4   12       1
    12    6   15       1
    13    6   13       1
    14    6   14       1
@<TRIPOS>SUBSTRUCTURE
     1 FFQ202      1 GROUP             4 A     FFQ     0 **** FFQ A 202
