@<TRIPOS>MOLECULE
4rf9_AGS_1_ligand
   43    45     1     0     0
SMALL
NO_CHARGES


@<TRIPOS>ATOM
     1 PG           7.1680    34.5500   119.4070 P.3          1 AGS801   0.0000
     2 S1G          5.2930    34.0180   119.3640 S.2          1 AGS801   0.0000
     3 O2G          7.8160    34.0770   120.7420 O.co2        1 AGS801  -1.0000
     4 O3G          7.2430    36.1030   119.2900 O.co2        1 AGS801  -1.0000
     5 PB           7.6050    34.4960   116.7610 P.3          1 AGS801   0.0000
     6 O1B          8.8650    34.8470   116.0600 O.co2        1 AGS801   0.0000
     7 O2B          6.6880    35.7010   116.9900 O.co2        1 AGS801  -1.0000
     8 O3B          7.9120    33.9180   118.1970 O.3          1 AGS801   0.0000
     9 PA           5.7110    34.0810   114.8680 P.3          1 AGS801   0.0000
    10 O1A          4.9480    33.0030   114.1930 O.co2        1 AGS801   0.0000
    11 O2A          4.8820    35.1150   115.6340 O.co2        1 AGS801  -1.0000
    12 O3A          6.7380    33.4790   115.9150 O.3          1 AGS801   0.0000
    13 O5'          6.6470    34.7400   113.7740 O.3          1 AGS801   0.0000
    14 C5'          7.5970    33.8970   113.0940 C.3          1 AGS801   0.0000
    15 C4'          8.6280    34.7200   112.3610 C.3          1 AGS801   0.0000
    16 O4'          8.6430    34.3460   110.9680 O.3          1 AGS801   0.0000
    17 C3'          8.4050    36.2250   112.3430 C.3          1 AGS801   0.0000
    18 O3'          8.8680    36.8370   113.5400 O.3          1 AGS801   0.0000
    19 C2'          9.2260    36.6500   111.1240 C.3          1 AGS801   0.0000
    20 O2'         10.6020    36.8200   111.4470 O.3          1 AGS801   0.0000
    21 C1'          9.0460    35.4520   110.1770 C.3          1 AGS801   0.0000
    22 N9           8.0510    35.6680   109.1290 N.pl3        1 AGS801   0.0000
    23 C8           6.7800    36.1580   109.2910 C.2          1 AGS801   0.0000
    24 N7           6.1030    36.2540   108.1750 N.2          1 AGS801   0.0000
    25 C5           6.9850    35.7940   107.2060 C.ar         1 AGS801   0.0000
    26 C6           6.8690    35.6420   105.8140 C.ar         1 AGS801   0.0000
    27 N6           5.7730    35.9480   105.1220 N.pl3        1 AGS801   0.0000
    28 N1           7.9410    35.1550   105.1460 N.ar         1 AGS801   0.0000
    29 C2           9.0440    34.8460   105.8370 C.ar         1 AGS801   0.0000
    30 N3           9.2670    34.9480   107.1510 N.ar         1 AGS801   0.0000
    31 C4           8.1890    35.4320   107.7890 C.ar         1 AGS801   0.0000
    32 H5'1         7.1108    33.3217   112.4363 H            1 AGS801   0.0000
    33 H5'2         8.0590    33.3179   113.7657 H            1 AGS801   0.0000
    34 H4'          9.5282    34.5327   112.7542 H            1 AGS801   0.0000
    35 H3'          7.4371    36.4312   112.1992 H            1 AGS801   0.0000
    36 H5           8.7857    36.1904   114.2984 H            1 AGS801   0.0000
    37 H2'          8.8516    37.4832   110.7171 H            1 AGS801   0.0000
    38 H7          10.6874    37.1073   112.4010 H            1 AGS801   0.0000
    39 H1'          9.9255    35.2416   109.7502 H            1 AGS801   0.0000
    40 H9           6.4049    36.4182   110.1807 H            1 AGS801   0.0000
    41 H10          5.7544    35.8163   104.1309 H            1 AGS801   0.0000
    42 H11          4.9686    36.3095   105.5935 H            1 AGS801   0.0000
    43 H12          9.8062    34.4899   105.2964 H            1 AGS801   0.0000
@<TRIPOS>BOND
     1    1    2       2
     2    1    3      ar
     3    1    4      ar
     4    1    8       1
     5    5    6      ar
     6    5    7      ar
     7    5    8       1
     8    5   12       1
     9    9   10      ar
    10    9   11      ar
    11    9   12       1
    12    9   13       1
    13   13   14       1
    14   14   15       1
    15   15   16       1
    16   15   17       1
    17   16   21       1
    18   17   18       1
    19   17   19       1
    20   19   20       1
    21   19   21       1
    22   21   22       1
    23   22   23       1
    24   22   31       1
    25   23   24       2
    26   24   25       1
    27   25   26      ar
    28   25   31      ar
    29   26   27       1
    30   26   28      ar
    31   28   29      ar
    32   29   30      ar
    33   30   31      ar
    34   29   43       1
    35   27   42       1
    36   27   41       1
    37   23   40       1
    38   14   32       1
    39   14   33       1
    40   15   34       1
    41   17   35       1
    42   18   36       1
    43   19   37       1
    44   20   38       1
    45   21   39       1
@<TRIPOS>SUBSTRUCTURE
     1 AGS801      1 GROUP             4 B     AGS     0 **** AGS B 801
