@<TRIPOS>MOLECULE
4jyz_ATP_1_ligand
   43    45     1     0     0
SMALL
NO_CHARGES


@<TRIPOS>ATOM
     1 PG          21.6910    45.2960    -8.7240 P.3          1 ATP601   0.0000
     2 O1G         20.5410    44.6820    -8.0220 O.co2        1 ATP601   0.0000
     3 O2G         22.9710    44.5620    -8.5960 O.co2        1 ATP601  -1.0000
     4 O3G         21.8110    46.7580    -8.5220 O.co2        1 ATP601  -1.0000
     5 PB          19.8860    45.6730   -10.7970 P.3          1 ATP601   0.0000
     6 O1B         20.1040    47.0130   -11.3830 O.co2        1 ATP601   0.0000
     7 O2B         18.9090    45.5100    -9.6960 O.co2        1 ATP601  -1.0000
     8 O3B         21.3100    45.1320   -10.2810 O.3          1 ATP601   0.0000
     9 PA          19.2240    45.1700   -13.4630 P.3          1 ATP601   0.0000
    10 O1A         18.0150    46.0210   -13.4570 O.co2        1 ATP601   0.0000
    11 O2A         20.4890    45.7290   -13.9910 O.co2        1 ATP601  -1.0000
    12 O3A         19.4810    44.6420   -11.9650 O.3          1 ATP601   0.0000
    13 O5'         18.8730    43.8090   -14.2430 O.3          1 ATP601   0.0000
    14 C5'         19.6210    42.6330   -13.9360 C.3          1 ATP601   0.0000
    15 C4'         18.8620    41.3860   -14.3930 C.3          1 ATP601   0.0000
    16 O4'         19.5600    40.2890   -13.7850 O.3          1 ATP601   0.0000
    17 C3'         17.4950    41.3490   -13.7280 C.3          1 ATP601   0.0000
    18 O3'         16.7670    40.1810   -14.1380 O.3          1 ATP601   0.0000
    19 C2'         17.9250    41.1880   -12.2830 C.3          1 ATP601   0.0000
    20 O2'         16.8490    40.5880   -11.5460 O.3          1 ATP601   0.0000
    21 C1'         19.0390    40.1680   -12.4500 C.3          1 ATP601   0.0000
    22 N9          20.0710    40.2750   -11.3950 N.pl3        1 ATP601   0.0000
    23 C8          20.5100    41.3800   -10.8000 C.2          1 ATP601   0.0000
    24 N7          21.4000    41.0120    -9.8830 N.2          1 ATP601   0.0000
    25 C5          21.5020    39.6840    -9.9010 C.ar         1 ATP601   0.0000
    26 C6          22.2080    38.8340    -9.1620 C.ar         1 ATP601   0.0000
    27 N6          22.9780    39.3560    -8.2080 N.pl3        1 ATP601   0.0000
    28 N1          22.1540    37.5100    -9.3510 N.ar         1 ATP601   0.0000
    29 C2          21.3360    37.0070   -10.3680 C.ar         1 ATP601   0.0000
    30 N3          20.6040    37.9220   -11.1290 N.ar         1 ATP601   0.0000
    31 C4          20.6970    39.2330   -10.8640 C.ar         1 ATP601   0.0000
    32 H5'1        19.7696    42.5851   -12.9483 H            1 ATP601   0.0000
    33 H5'2        20.5037    42.6719   -14.4044 H            1 ATP601   0.0000
    34 H4'         18.8103    41.3076   -15.3886 H            1 ATP601   0.0000
    35 H3'         16.9770    42.1911   -13.8782 H            1 ATP601   0.0000
    36 H5          16.1518    39.8965   -13.4028 H            1 ATP601   0.0000
    37 H2'         18.2424    42.0445   -11.8760 H            1 ATP601   0.0000
    38 H7          16.0418    41.1761   -11.5964 H            1 ATP601   0.0000
    39 H1'         18.6263    39.2605   -12.3723 H            1 ATP601   0.0000
    40 H9          20.2235    42.3160   -11.0045 H            1 ATP601   0.0000
    41 H10         23.5280    38.7571    -7.6259 H            1 ATP601   0.0000
    42 H11         23.0059    40.3466    -8.0742 H            1 ATP601   0.0000
    43 H12         21.2770    36.0245   -10.5447 H            1 ATP601   0.0000
@<TRIPOS>BOND
     1    1    2      ar
     2    1    3      ar
     3    1    4      ar
     4    1    8       1
     5    5    6      ar
     6    5    7      ar
     7    5    8       1
     8    5   12       1
     9    9   10      ar
    10    9   11      ar
    11    9   12       1
    12    9   13       1
    13   13   14       1
    14   14   15       1
    15   15   16       1
    16   15   17       1
    17   16   21       1
    18   17   18       1
    19   17   19       1
    20   19   20       1
    21   19   21       1
    22   21   22       1
    23   22   23       1
    24   22   31       1
    25   23   24       2
    26   24   25       1
    27   25   26      ar
    28   25   31      ar
    29   26   27       1
    30   26   28      ar
    31   28   29      ar
    32   29   30      ar
    33   30   31      ar
    34   29   43       1
    35   27   42       1
    36   27   41       1
    37   23   40       1
    38   14   32       1
    39   14   33       1
    40   15   34       1
    41   17   35       1
    42   18   36       1
    43   19   37       1
    44   20   38       1
    45   21   39       1
@<TRIPOS>SUBSTRUCTURE
     1 ATP601      1 GROUP             4 A     ATP     0 **** ATP A 601
