@<TRIPOS>MOLECULE
4l3j_5FI_1_ligand
   50    53     1     0     0
SMALL
NO_CHARGES


@<TRIPOS>ATOM
     1 C4          25.2910   -20.7260    14.9070 C.ar         1 5FI401   0.0000
     2 C5          26.4950   -20.9390    14.2370 C.ar         1 5FI401   0.0000
     3 C6          27.6630   -20.7080    14.9590 C.ar         1 5FI401   0.0000
     4 N1          27.6180   -20.3070    16.2230 N.ar         1 5FI401   0.0000
     5 N3          25.3580   -20.3100    16.1960 N.ar         1 5FI401   0.0000
     6 FAB         19.9750   -28.7500    10.0510 F            1 5FI401   0.0000
     7 CBB         19.5620   -27.6860     9.3840 C.3          1 5FI401   0.0000
     8 FAC         18.3920   -27.9510     8.8720 F            1 5FI401   0.0000
     9 FAD         20.3770   -27.4270     8.3600 F            1 5FI401   0.0000
    10 CAU         19.3980   -26.4870    10.3500 C.ar         1 5FI401   0.0000
    11 CAE         18.5590   -26.6220    11.4560 C.ar         1 5FI401   0.0000
    12 CAF         18.3800   -25.5590    12.3340 C.ar         1 5FI401   0.0000
    13 CAI         20.0620   -25.2840    10.1210 C.ar         1 5FI401   0.0000
    14 CAX         19.8730   -24.2210    11.0000 C.ar         1 5FI401   0.0000
    15 CAY         19.0410   -24.3520    12.0920 C.ar         1 5FI401   0.0000
    16 NAS         19.0580   -23.2010    12.7390 N.pl3        1 5FI401   0.0000
    17 NAR         20.3640   -22.9960    11.0350 N.2          1 5FI401   0.0000
    18 CAV         19.8650   -22.3780    12.0880 C.2          1 5FI401   0.0000
    19 CAO         20.1610   -20.9280    12.4960 C.3          1 5FI401   0.0000
    20 NAZ         21.4560   -20.7750    13.1670 N.4          1 5FI401   1.0000
    21 CAL         21.5780   -21.5330    14.4240 C.3          1 5FI401   0.0000
    22 CAN         22.8370   -21.0950    15.2010 C.3          1 5FI401   0.0000
    23 CAK         22.5870   -20.9960    12.2580 C.3          1 5FI401   0.0000
    24 CAM         23.8350   -20.3990    12.8890 C.3          1 5FI401   0.0000
    25 NBA         24.0150   -20.8370    14.3230 N.pl3        1 5FI401   0.0000
    26 CAJ         26.6900   -21.3960    12.7830 C.3          1 5FI401   0.0000
    27 CAA         26.4430   -22.8930    12.6470 C.3          1 5FI401   0.0000
    28 C2          26.4880   -20.1150    16.8400 C.ar         1 5FI401   0.0000
    29 H1          28.5497   -20.8465    14.5179 H            1 5FI401   0.0000
    30 HAE         18.0842   -27.4870    11.6181 H            1 5FI401   0.0000
    31 HAF         17.7840   -25.6573    13.1309 H            1 5FI401   0.0000
    32 HAI         20.6689   -25.1848     9.3324 H            1 5FI401   0.0000
    33 HAO1        19.4414   -20.6186    13.1176 H            1 5FI401   0.0000
    34 HAO2        20.1588   -20.3588    11.6738 H            1 5FI401   0.0000
    35 HAL1        21.6437   -22.5086    14.2146 H            1 5FI401   0.0000
    36 HAL2        20.7691   -21.3668    14.9880 H            1 5FI401   0.0000
    37 HAN1        23.0769   -21.8178    15.8491 H            1 5FI401   0.0000
    38 HAN2        22.6247   -20.2556    15.7013 H            1 5FI401   0.0000
    39 HAK1        22.4067   -20.5515    11.3806 H            1 5FI401   0.0000
    40 HAK2        22.7177   -21.9769    12.1141 H            1 5FI401   0.0000
    41 HAM1        23.7632   -19.4019    12.8635 H            1 5FI401   0.0000
    42 HAM2        24.6331   -20.6893    12.3611 H            1 5FI401   0.0000
    43 HAJ1        27.6264   -21.1913    12.4981 H            1 5FI401   0.0000
    44 HAJ2        26.0477   -20.9034    12.1958 H            1 5FI401   0.0000
    45 HAA1        26.5753   -23.1675    11.6946 H            1 5FI401   0.0000
    46 HAA2        27.0852   -23.3911    13.2297 H            1 5FI401   0.0000
    47 HAA3        25.5064   -23.1031    12.9275 H            1 5FI401   0.0000
    48 H20         26.4792   -19.8216    17.7959 H            1 5FI401   0.0000
    49 HAS         18.5505   -22.9884    13.5740 H            1 5FI401   0.0000
    50 HAZ         21.5086   -19.8116    13.4297 H            1 5FI401   0.0000
@<TRIPOS>BOND
     1    1    2      ar
     2    1    5      ar
     3    1   25       1
     4    2    3      ar
     5    2   26       1
     6    3    4      ar
     7    4   28      ar
     8    5   28      ar
     9    6    7       1
    10    7    8       1
    11    7    9       1
    12    7   10       1
    13   10   11      ar
    14   10   13      ar
    15   11   12      ar
    16   12   15      ar
    17   13   14      ar
    18   14   15      ar
    19   14   17       1
    20   15   16       1
    21   16   18       1
    22   17   18       2
    23   18   19       1
    24   19   20       1
    25   20   21       1
    26   20   23       1
    27   21   22       1
    28   22   25       1
    29   23   24       1
    30   24   25       1
    31   26   27       1
    32    3   29       1
    33   11   30       1
    34   12   31       1
    35   13   32       1
    36   16   49       1
    37   19   33       1
    38   19   34       1
    39   21   35       1
    40   21   36       1
    41   22   37       1
    42   22   38       1
    43   23   39       1
    44   23   40       1
    45   24   41       1
    46   24   42       1
    47   26   43       1
    48   26   44       1
    49   27   45       1
    50   27   46       1
    51   27   47       1
    52   28   48       1
    53   20   50       1
@<TRIPOS>SUBSTRUCTURE
     1 5FI401      1 GROUP             4 A     5FI     0 **** 5FI A 401
