@<TRIPOS>MOLECULE
2pk5_075_1_ligand
  101   106     1     0     0
SMALL
NO_CHARGES


@<TRIPOS>ATOM
     1 C           15.3200   -26.8240   -12.1370 C.ar         1 075900   0.0000
     2 C1          16.1680   -26.1380   -13.0060 C.ar         1 075900   0.0000
     3 C2          17.4720   -25.8340   -12.6250 C.ar         1 075900   0.0000
     4 C3          17.8960   -26.2190   -11.3520 C.ar         1 075900   0.0000
     5 C4          17.0110   -26.9070   -10.5150 C.ar         1 075900   0.0000
     6 C5          18.3430   -25.1600   -13.4730 C.ar         1 075900   0.0000
     7 C6          19.6400   -24.8560   -13.0410 C.ar         1 075900   0.0000
     8 C7          20.0700   -25.2340   -11.7630 C.ar         1 075900   0.0000
     9 C8          19.1930   -25.9250   -10.9270 C.ar         1 075900   0.0000
    10 C9          18.8850   -24.3620   -15.6970 C.3          1 075900   0.0000
    11 C10         18.2540   -23.8690   -16.9850 C.2          1 075900   0.0000
    12 N           15.7640   -27.1940   -10.9230 N.ar         1 075900   0.0000
    13 O           17.9290   -24.7770   -14.7250 O.3          1 075900   0.0000
    14 O2          18.9520   -23.2530   -17.7650 O.2          1 075900   0.0000
    15 C12         15.1570   -22.8160   -18.0880 C.2          1 075900   0.0000
    16 O5          13.9920   -23.1920   -18.1930 O.2          1 075900   0.0000
    17 C21         16.3240   -23.7100   -18.4450 C.3          1 075900   0.0000
    18 C11         15.9440   -24.9760   -19.2370 C.3          1 075900   0.0000
    19 S           17.1910   -25.6790   -20.1170 S.o2         1 075900   0.0000
    20 O8          17.9750   -24.6800   -20.7930 O.2          1 075900   0.0000
    21 C28         18.1460   -26.5960   -19.0980 C.3          1 075900   0.0000
    22 O6          16.6470   -26.5340   -21.1190 O.2          1 075900   0.0000
    23 N1          16.9770   -24.1510   -17.2210 N.am         1 075900   0.0000
    24 C16         13.0950   -18.9080   -18.4150 C.2          1 075900   0.0000
    25 N2          15.5010   -21.5970   -17.6440 N.am         1 075900   0.0000
    26 O3          13.0460   -17.8590   -17.7830 O.2          1 075900   0.0000
    27 C14         14.3830   -19.6820   -18.4760 C.3          1 075900   0.0000
    28 C22         15.3330   -20.8100   -14.9630 C.ar         1 075900   0.0000
    29 C15         15.0670   -19.8190   -16.0530 C.3          1 075900   0.0000
    30 C25         15.8770   -22.6420   -12.9570 C.ar         1 075900   0.0000
    31 C13         14.5160   -20.5850   -17.2560 C.3          1 075900   0.0000
    32 O1          15.4980   -18.7890   -18.5700 O.3          1 075900   0.0000
    33 C23         16.6580   -21.0600   -14.5970 C.ar         1 075900   0.0000
    34 C27         14.2670   -21.4720   -14.3370 C.ar         1 075900   0.0000
    35 C24         16.9310   -21.9870   -13.5940 C.ar         1 075900   0.0000
    36 C26         14.5530   -22.3880   -13.3250 C.ar         1 075900   0.0000
    37 C20         10.0270   -18.7220   -17.8540 C.2          1 075900   0.0000
    38 N3          12.0510   -19.4310   -19.0760 N.am         1 075900   0.0000
    39 O4          10.0340   -19.7240   -17.1200 O.2          1 075900   0.0000
    40 C17         10.7880   -18.6900   -19.1530 C.3          1 075900   0.0000
    41 C18          9.9260   -19.2400   -20.3010 C.3          1 075900   0.0000
    42 C19         12.0150   -20.7250   -19.7810 C.3          1 075900   0.0000
    43 C29         10.3100   -18.5520   -21.5920 C.3          1 075900   0.0000
    44 C30          8.4110   -19.1100   -20.1450 C.3          1 075900   0.0000
    45 S1          10.3640   -20.9290   -20.3420 S.3          1 075900   0.0000
    46 N4           9.3720   -17.5850   -17.5960 N.am         1 075900   0.0000
    47 O7           7.8910   -15.3880   -17.6250 O.3          1 075900   0.0000
    48 C31          8.5260   -17.4410   -16.4250 C.3          1 075900   0.0000
    49 C32          9.1530   -16.8350   -15.2460 C.ar         1 075900   0.0000
    50 C33         10.4160   -17.1180   -14.7360 C.ar         1 075900   0.0000
    51 C34         10.8140   -16.4180   -13.5920 C.ar         1 075900   0.0000
    52 C35          7.4060   -16.4440   -16.7670 C.3          1 075900   0.0000
    53 C36          8.2950   -15.9260   -14.6780 C.ar         1 075900   0.0000
    54 C37          8.6710   -15.2120   -13.5510 C.ar         1 075900   0.0000
    55 C38          9.9450   -15.4730   -13.0280 C.ar         1 075900   0.0000
    56 C39          6.9880   -15.8100   -15.4400 C.3          1 075900   0.0000
    57 H1          14.3843   -27.0401   -12.4160 H            1 075900   0.0000
    58 H2          15.8372   -25.8627   -13.9087 H            1 075900   0.0000
    59 H3          17.3101   -27.1881    -9.6031 H            1 075900   0.0000
    60 H4          20.2636   -24.3654   -13.6496 H            1 075900   0.0000
    61 H5          20.9945   -25.0113   -11.4536 H            1 075900   0.0000
    62 H6          19.4950   -26.2115   -10.0178 H            1 075900   0.0000
    63 H7          19.4326   -23.6213   -15.3078 H            1 075900   0.0000
    64 H8          19.4781   -25.1382   -15.9107 H            1 075900   0.0000
    65 H9          16.9791   -23.1805   -18.9839 H            1 075900   0.0000
    66 H10         15.2148   -24.7323   -19.8764 H            1 075900   0.0000
    67 H11         15.6041   -25.6557   -18.5871 H            1 075900   0.0000
    68 H12         18.8877   -27.0139   -19.6226 H            1 075900   0.0000
    69 H13         18.5311   -26.0100   -18.3850 H            1 075900   0.0000
    70 H14         17.5908   -27.3130   -18.6764 H            1 075900   0.0000
    71 H15         16.4562   -24.6747   -16.5468 H            1 075900   0.0000
    72 H16         16.4724   -21.3698   -17.5751 H            1 075900   0.0000
    73 H17         14.3682   -20.2565   -19.2944 H            1 075900   0.0000
    74 H18         15.9159   -19.3545   -16.3051 H            1 075900   0.0000
    75 H19         14.3971   -19.1442   -15.7434 H            1 075900   0.0000
    76 H20         16.0708   -23.3001   -12.2295 H            1 075900   0.0000
    77 H21         13.6392   -21.0111   -17.0333 H            1 075900   0.0000
    78 H22         15.4120   -18.2343   -19.3976 H            1 075900   0.0000
    79 H23         17.4056   -20.5764   -15.0523 H            1 075900   0.0000
    80 H24         13.3222   -21.2912   -14.6103 H            1 075900   0.0000
    81 H25         17.8763   -22.1817   -13.3323 H            1 075900   0.0000
    82 H26         13.8071   -22.8653   -12.8605 H            1 075900   0.0000
    83 H27         11.0034   -17.7356   -19.3600 H            1 075900   0.0000
    84 H28         12.2638   -21.4666   -19.1580 H            1 075900   0.0000
    85 H29         12.6462   -20.7152   -20.5565 H            1 075900   0.0000
    86 H30          9.7498   -18.9091   -22.3394 H            1 075900   0.0000
    87 H31         10.1586   -17.5675   -21.5029 H            1 075900   0.0000
    88 H32         11.2755   -18.7245   -21.7872 H            1 075900   0.0000
    89 H33          7.9587   -19.4995   -20.9473 H            1 075900   0.0000
    90 H34          8.1169   -19.6014   -19.3252 H            1 075900   0.0000
    91 H35          8.1663   -18.1441   -20.0604 H            1 075900   0.0000
    92 H36          9.4674   -16.8142   -18.2258 H            1 075900   0.0000
    93 H37          7.3785   -15.3944   -18.4837 H            1 075900   0.0000
    94 H38          8.1298   -18.3263   -16.1815 H            1 075900   0.0000
    95 H39         11.0138   -17.7929   -15.1686 H            1 075900   0.0000
    96 H40         11.7091   -16.5898   -13.1806 H            1 075900   0.0000
    97 H41          6.6326   -16.9151   -17.1912 H            1 075900   0.0000
    98 H42          8.0608   -14.5409   -13.1300 H            1 075900   0.0000
    99 H43         10.2461   -14.9652   -12.2208 H            1 075900   0.0000
   100 H44          6.2524   -16.3231   -14.9977 H            1 075900   0.0000
   101 H45          6.7074   -14.8571   -15.5548 H            1 075900   0.0000
@<TRIPOS>BOND
     1    1    2      ar
     2    1   12      ar
     3    2    3      ar
     4    3    4      ar
     5    3    6      ar
     6    4    5      ar
     7    4    9      ar
     8    5   12      ar
     9    6    7      ar
    10    6   13       1
    11    7    8      ar
    12    8    9      ar
    13   10   11       1
    14   10   13       1
    15   11   14       2
    16   11   23      am
    17   15   16       2
    18   15   17       1
    19   15   25      am
    20   17   18       1
    21   17   23       1
    22   18   19       1
    23   19   20       2
    24   19   21       1
    25   19   22       2
    26   24   26       2
    27   24   27       1
    28   24   38      am
    29   25   31       1
    30   27   31       1
    31   27   32       1
    32   28   29       1
    33   28   33      ar
    34   28   34      ar
    35   29   31       1
    36   30   35      ar
    37   30   36      ar
    38   33   35      ar
    39   34   36      ar
    40   37   39       2
    41   37   40       1
    42   37   46      am
    43   38   40       1
    44   38   42       1
    45   40   41       1
    46   41   43       1
    47   41   44       1
    48   41   45       1
    49   42   45       1
    50   46   48       1
    51   47   52       1
    52   48   49       1
    53   48   52       1
    54   49   50      ar
    55   49   53      ar
    56   50   51      ar
    57   51   55      ar
    58   52   56       1
    59   53   54      ar
    60   53   56       1
    61   54   55      ar
    62    1   57       1
    63    2   58       1
    64    5   59       1
    65    7   60       1
    66    8   61       1
    67    9   62       1
    68   10   63       1
    69   10   64       1
    70   17   65       1
    71   18   66       1
    72   18   67       1
    73   21   68       1
    74   21   69       1
    75   21   70       1
    76   23   71       1
    77   25   72       1
    78   27   73       1
    79   29   74       1
    80   29   75       1
    81   30   76       1
    82   31   77       1
    83   32   78       1
    84   33   79       1
    85   34   80       1
    86   35   81       1
    87   36   82       1
    88   40   83       1
    89   42   84       1
    90   42   85       1
    91   43   86       1
    92   43   87       1
    93   43   88       1
    94   44   89       1
    95   44   90       1
    96   44   91       1
    97   46   92       1
    98   47   93       1
    99   48   94       1
   100   50   95       1
   101   51   96       1
   102   52   97       1
   103   54   98       1
   104   55   99       1
   105   56  100       1
   106   56  101       1
@<TRIPOS>SUBSTRUCTURE
     1 075900      1 GROUP             4 A     075     0 **** 075 A 900
