@<TRIPOS>MOLECULE
2q4w_FAD_1_ligand
   84    89     1     0     0
SMALL
NO_CHARGES


@<TRIPOS>ATOM
     1 PA          33.8980     8.4460   160.6880 P.3          1 FAD701   0.0000
     2 O1A         33.6820     9.7900   160.1860 O.co2        1 FAD701   0.0000
     3 O2A         33.0450     7.4540   160.0180 O.co2        1 FAD701  -1.0000
     4 O5B         35.5410     8.3380   160.4820 O.3          1 FAD701   0.0000
     5 C5B         36.4570     7.3490   160.8130 C.3          1 FAD701   0.0000
     6 C4B         37.1910     6.6970   159.5850 C.3          1 FAD701   0.0000
     7 O4B         37.1660     5.4500   160.1810 O.3          1 FAD701   0.0000
     8 C3B         36.4370     6.5140   158.2310 C.3          1 FAD701   0.0000
     9 O3B         37.3400     6.2050   157.1570 O.3          1 FAD701   0.0000
    10 C2B         35.5230     5.3590   158.4570 C.3          1 FAD701   0.0000
    11 O2B         35.0940     4.6560   157.3240 O.3          1 FAD701   0.0000
    12 C1B         36.3580     4.5240   159.4350 C.3          1 FAD701   0.0000
    13 N9A         35.6300     3.8710   160.4760 N.pl3        1 FAD701   0.0000
    14 C8A         34.4080     4.1990   161.0740 C.2          1 FAD701   0.0000
    15 N7A         34.0420     3.3500   162.0600 N.2          1 FAD701   0.0000
    16 C5A         35.1080     2.4490   162.0560 C.ar         1 FAD701   0.0000
    17 C6A         35.3680     1.2930   162.8570 C.ar         1 FAD701   0.0000
    18 N6A         34.5170     0.9040   163.8040 N.pl3        1 FAD701   0.0000
    19 N1A         36.5120     0.5920   162.6200 N.ar         1 FAD701   0.0000
    20 C2A         37.3630     1.0140   161.6410 C.ar         1 FAD701   0.0000
    21 N3A         37.2340     2.0640   160.8370 N.ar         1 FAD701   0.0000
    22 C4A         36.0410     2.7580   161.1120 C.ar         1 FAD701   0.0000
    23 N1          37.8880    14.8850   166.2850 N.2          1 FAD701   0.0000
    24 C2          38.5340    14.7010   167.4050 C.2          1 FAD701   0.0000
    25 O2          39.3230    13.8110   167.5320 O.2          1 FAD701   0.0000
    26 N3          38.3320    15.5590   168.4720 N.pl3        1 FAD701   0.0000
    27 C4          37.4560    16.6570   168.4540 C.2          1 FAD701   0.0000
    28 O4          37.3420    17.3500   169.4540 O.2          1 FAD701   0.0000
    29 C4X         36.7770    16.8480   167.2460 C.2          1 FAD701   0.0000
    30 N5          35.8800    17.9160   167.1220 N.2          1 FAD701   0.0000
    31 C5X         35.2250    18.1030   165.9530 C.ar         1 FAD701   0.0000
    32 C6          34.3040    19.1770   165.8290 C.ar         1 FAD701   0.0000
    33 C7          33.6010    19.3850   164.6730 C.ar         1 FAD701   0.0000
    34 C7M         32.6400    20.5260   164.6520 C.3          1 FAD701   0.0000
    35 C8          33.7610    18.5550   163.5680 C.ar         1 FAD701   0.0000
    36 C8M         32.9900    18.7480   162.2800 C.3          1 FAD701   0.0000
    37 C9          34.7070    17.4530   163.6530 C.ar         1 FAD701   0.0000
    38 C9A         35.4280    17.2130   164.8100 C.ar         1 FAD701   0.0000
    39 N10         36.3630    16.1170   164.9560 N.pl3        1 FAD701   0.0000
    40 C10         37.0200    15.9450   166.1790 C.2          1 FAD701   0.0000
    41 C1'         36.5750    15.1810   163.8180 C.3          1 FAD701   0.0000
    42 C2'         35.6450    14.0920   164.1380 C.3          1 FAD701   0.0000
    43 O2'         36.2020    13.5230   165.3150 O.3          1 FAD701   0.0000
    44 C3'         35.5060    12.9640   163.1750 C.3          1 FAD701   0.0000
    45 O3'         35.0130    13.2430   161.8960 O.3          1 FAD701   0.0000
    46 C4'         34.5790    12.0620   163.8440 C.3          1 FAD701   0.0000
    47 O4'         34.9130    11.6780   165.2220 O.3          1 FAD701   0.0000
    48 C5'         34.4160    10.9420   162.9670 C.3          1 FAD701   0.0000
    49 O5'         33.8870    10.1670   163.7110 O.3          1 FAD701   0.0000
    50 P           32.8530     9.1120   163.3600 P.3          1 FAD701   0.0000
    51 O1P         32.7790     8.4650   164.6210 O.co2        1 FAD701   0.0000
    52 O2P         31.6050     9.6580   162.8130 O.co2        1 FAD701  -1.0000
    53 O3P         33.5000     8.2290   162.2240 O.3          1 FAD701   0.0000
    54 H5B1        35.9714     6.6266   161.3053 H            1 FAD701   0.0000
    55 H5B2        37.1491     7.7529   161.4112 H            1 FAD701   0.0000
    56 H4B         38.1202     7.0460   159.4632 H            1 FAD701   0.0000
    57 H3B         35.9097     7.3356   158.0145 H            1 FAD701   0.0000
    58 H5          37.4491     5.2134   157.0881 H            1 FAD701   0.0000
    59 H2B         34.7144     5.6915   158.9424 H            1 FAD701   0.0000
    60 H7          34.1852     4.2744   157.4928 H            1 FAD701   0.0000
    61 H1B         36.9325     3.8709   158.9416 H            1 FAD701   0.0000
    62 H8A         33.8576     4.9870   160.7979 H            1 FAD701   0.0000
    63 H6A1        34.7170     0.0928   164.3534 H            1 FAD701   0.0000
    64 H6A2        33.6777     1.4230   163.9659 H            1 FAD701   0.0000
    65 H2A         38.1880     0.4637   161.5121 H            1 FAD701   0.0000
    66 H13         38.8445    15.3855   169.3130 H            1 FAD701   0.0000
    67 H14         34.1661    19.7948   166.6031 H            1 FAD701   0.0000
    68 H7M1        32.1940    20.5698   163.7580 H            1 FAD701   0.0000
    69 H7M2        31.9494    20.3933   165.3629 H            1 FAD701   0.0000
    70 H7M3        33.1325    21.3798   164.8209 H            1 FAD701   0.0000
    71 H8M1        33.2583    18.0442   161.6222 H            1 FAD701   0.0000
    72 H8M2        32.0098    18.6757   162.4642 H            1 FAD701   0.0000
    73 H8M3        33.1925    19.6516   161.9025 H            1 FAD701   0.0000
    74 H21         34.8389    16.8576   162.8605 H            1 FAD701   0.0000
    75 H1'1        37.5197    14.8544   163.7878 H            1 FAD701   0.0000
    76 H1'2        36.3432    15.6117   162.9458 H            1 FAD701   0.0000
    77 H2'         34.7426    14.4709   164.3433 H            1 FAD701   0.0000
    78 H25         36.6843    14.2307   165.8313 H            1 FAD701   0.0000
    79 H3'         36.3909    12.5069   163.0856 H            1 FAD701   0.0000
    80 H27         35.4029    12.5966   161.2401 H            1 FAD701   0.0000
    81 H4'         33.6963    12.5305   163.8809 H            1 FAD701   0.0000
    82 H29         35.7676    12.1206   165.4935 H            1 FAD701   0.0000
    83 H5'1        35.2954    10.5982   162.6376 H            1 FAD701   0.0000
    84 H5'2        33.8316    11.1644   162.1866 H            1 FAD701   0.0000
@<TRIPOS>BOND
     1    1    2      ar
     2    1    3      ar
     3    1    4       1
     4    1   53       1
     5    4    5       1
     6    5    6       1
     7    6    7       1
     8    6    8       1
     9    7   12       1
    10    8    9       1
    11    8   10       1
    12   10   11       1
    13   10   12       1
    14   12   13       1
    15   13   14       1
    16   13   22       1
    17   14   15       2
    18   15   16       1
    19   16   17      ar
    20   16   22      ar
    21   17   18       1
    22   17   19      ar
    23   19   20      ar
    24   20   21      ar
    25   21   22      ar
    26   23   24       1
    27   23   40       2
    28   24   25       2
    29   24   26       1
    30   26   27       1
    31   27   28       2
    32   27   29       1
    33   29   30       2
    34   29   40       1
    35   30   31       1
    36   31   32      ar
    37   31   38      ar
    38   32   33      ar
    39   33   34       1
    40   33   35      ar
    41   35   36       1
    42   35   37      ar
    43   37   38      ar
    44   38   39       1
    45   39   40       1
    46   39   41       1
    47   41   42       1
    48   42   43       1
    49   42   44       1
    50   44   45       1
    51   44   46       1
    52   46   47       1
    53   46   48       1
    54   48   49       1
    55   49   50       1
    56   50   51      ar
    57   50   52      ar
    58   50   53       1
    59   48   84       1
    60    5   54       1
    61    5   55       1
    62    6   56       1
    63    8   57       1
    64    9   58       1
    65   10   59       1
    66   11   60       1
    67   12   61       1
    68   14   62       1
    69   18   63       1
    70   18   64       1
    71   20   65       1
    72   26   66       1
    73   32   67       1
    74   34   68       1
    75   34   69       1
    76   34   70       1
    77   36   71       1
    78   36   72       1
    79   36   73       1
    80   37   74       1
    81   41   75       1
    82   41   76       1
    83   42   77       1
    84   43   78       1
    85   44   79       1
    86   45   80       1
    87   46   81       1
    88   47   82       1
    89   48   83       1
@<TRIPOS>SUBSTRUCTURE
     1 FAD701      1 GROUP             4 A     FAD     0 **** FAD A 701
