@<TRIPOS>MOLECULE
3t4e_NAD_2_ligand
   70    74     1     0     0
SMALL
NO_CHARGES


@<TRIPOS>ATOM
     1 PA           0.4920    81.6270    15.4990 P.3          1 NAD289   0.0000
     2 O1A          0.2620    81.5180    14.0230 O.co2        1 NAD289   0.0000
     3 O2A         -0.3210    80.8080    16.4790 O.co2        1 NAD289  -1.0000
     4 O5B          0.2920    83.1950    15.8530 O.3          1 NAD289   0.0000
     5 C5B          0.9520    84.2110    15.0780 C.3          1 NAD289   0.0000
     6 C4B          0.9370    85.5520    15.8240 C.3          1 NAD289   0.0000
     7 O4B          1.8300    86.4980    15.1980 O.3          1 NAD289   0.0000
     8 C3B         -0.4200    86.2420    15.8180 C.3          1 NAD289   0.0000
     9 O3B         -0.5850    86.9680    17.0170 O.3          1 NAD289   0.0000
    10 C2B         -0.3400    87.2370    14.6850 C.3          1 NAD289   0.0000
    11 O2B         -1.2280    88.3310    14.8280 O.3          1 NAD289   0.0000
    12 C1B          1.1060    87.6630    14.8070 C.3          1 NAD289   0.0000
    13 N9A          1.6690    88.1760    13.5430 N.pl3        1 NAD289   0.0000
    14 C8A          1.9040    87.4820    12.4150 C.2          1 NAD289   0.0000
    15 N7A          2.4580    88.2920    11.4820 N.2          1 NAD289   0.0000
    16 C5A          2.5800    89.5250    12.0310 C.ar         1 NAD289   0.0000
    17 C6A          3.0510    90.7500    11.6140 C.ar         1 NAD289   0.0000
    18 N6A          3.5290    90.9110    10.3730 N.pl3        1 NAD289   0.0000
    19 N1A          3.0140    91.7900    12.4570 N.ar         1 NAD289   0.0000
    20 C2A          2.5430    91.6790    13.7100 C.ar         1 NAD289   0.0000
    21 N3A          2.0680    90.5190    14.1880 N.ar         1 NAD289   0.0000
    22 C4A          2.0710    89.4290    13.3930 C.ar         1 NAD289   0.0000
    23 O3           2.0690    81.3770    15.7380 O.3          1 NAD289   0.0000
    24 PN           2.6440    80.7190    17.0800 P.3          1 NAD289   0.0000
    25 O1N          2.5840    79.2250    16.9990 O.co2        1 NAD289   0.0000
    26 O2N          2.0730    81.4090    18.3010 O.co2        1 NAD289  -1.0000
    27 O5D          4.1920    81.0610    16.9240 O.3          1 NAD289   0.0000
    28 C5D          4.6630    82.3830    17.0230 C.3          1 NAD289   0.0000
    29 C4D          6.1760    82.2940    17.1320 C.3          1 NAD289   0.0000
    30 O4D          6.5700    81.6370    18.3520 O.3          1 NAD289   0.0000
    31 C3D          6.7760    81.4880    15.9980 C.3          1 NAD289   0.0000
    32 O3D          7.8920    82.1890    15.4950 O.3          1 NAD289   0.0000
    33 C2D          7.2240    80.1780    16.6120 C.3          1 NAD289   0.0000
    34 O2D          8.4020    79.6360    16.0040 O.3          1 NAD289   0.0000
    35 C1D          7.5070    80.6060    18.0440 C.3          1 NAD289   0.0000
    36 N1N          7.3930    79.5280    19.0000 N.ar         1 NAD289   1.0000
    37 C2N          8.5130    79.1940    19.6680 C.ar         1 NAD289   0.0000
    38 C3N          8.5230    78.1790    20.6110 C.ar         1 NAD289   0.0000
    39 C7N          9.7850    77.8400    21.3420 C.2          1 NAD289   0.0000
    40 O7N          9.8650    76.7670    21.9220 O.2          1 NAD289   0.0000
    41 N7N         10.7910    78.7230    21.3870 N.am         1 NAD289   0.0000
    42 C4N          7.3350    77.4900    20.8510 C.ar         1 NAD289   0.0000
    43 C5N          6.1800    77.8530    20.1490 C.ar         1 NAD289   0.0000
    44 C6N          6.2300    78.8940    19.2230 C.ar         1 NAD289   0.0000
    45 H5B1         0.4795    84.3161    14.2030 H            1 NAD289   0.0000
    46 H5B2         1.8995    83.9363    14.9143 H            1 NAD289   0.0000
    47 H4B          1.2259    85.4045    16.7699 H            1 NAD289   0.0000
    48 H3B         -1.1636    85.5878    15.6799 H            1 NAD289   0.0000
    49 H5          -1.1687    87.7622    16.8481 H            1 NAD289   0.0000
    50 H2B         -0.4934    86.7784    13.8097 H            1 NAD289   0.0000
    51 H7          -1.8564    88.3541    14.0504 H            1 NAD289   0.0000
    52 H1B          1.1893    88.3618    15.5174 H            1 NAD289   0.0000
    53 H8A          1.6999    86.5118    12.2847 H            1 NAD289   0.0000
    54 H6A1         3.8687    91.8048    10.0801 H            1 NAD289   0.0000
    55 H6A2         3.5462    90.1374     9.7395 H            1 NAD289   0.0000
    56 H2A          2.5465    92.4839    14.3034 H            1 NAD289   0.0000
    57 H5D1         4.2834    82.8252    17.8356 H            1 NAD289   0.0000
    58 H5D2         4.4052    82.9036    16.2091 H            1 NAD289   0.0000
    59 H4D          6.5606    83.2170    17.1176 H            1 NAD289   0.0000
    60 H3D          6.1007    81.3305    15.2775 H            1 NAD289   0.0000
    61 H17          8.3009    81.6701    14.7443 H            1 NAD289   0.0000
    62 H2D          6.4805    79.5097    16.5884 H            1 NAD289   0.0000
    63 H19          8.3801    78.6382    16.0659 H            1 NAD289   0.0000
    64 H1D          8.4315    80.9843    18.0918 H            1 NAD289   0.0000
    65 H2N          9.3597    79.6913    19.4787 H            1 NAD289   0.0000
    66 H7N1        11.6337    78.4964    21.8753 H            1 NAD289   0.0000
    67 H7N2        10.6994    79.6089    20.9323 H            1 NAD289   0.0000
    68 H4N          7.3085    76.7448    21.5173 H            1 NAD289   0.0000
    69 H5N          5.3212    77.3670    20.3111 H            1 NAD289   0.0000
    70 H6N          5.4052    79.1670    18.7279 H            1 NAD289   0.0000
@<TRIPOS>BOND
     1    1    2      ar
     2    1    3      ar
     3    1    4       1
     4    1   23       1
     5    4    5       1
     6    5    6       1
     7    6    7       1
     8    6    8       1
     9    7   12       1
    10    8    9       1
    11    8   10       1
    12   10   11       1
    13   10   12       1
    14   12   13       1
    15   13   14       1
    16   13   22       1
    17   14   15       2
    18   15   16       1
    19   16   17      ar
    20   16   22      ar
    21   17   18       1
    22   17   19      ar
    23   19   20      ar
    24   20   21      ar
    25   21   22      ar
    26   23   24       1
    27   24   25      ar
    28   24   26      ar
    29   24   27       1
    30   27   28       1
    31   28   29       1
    32   29   30       1
    33   29   31       1
    34   30   35       1
    35   31   32       1
    36   31   33       1
    37   33   34       1
    38   33   35       1
    39   35   36       1
    40   36   37      ar
    41   36   44      ar
    42   37   38      ar
    43   38   39       1
    44   38   42      ar
    45   39   40       2
    46   39   41      am
    47   42   43      ar
    48   43   44      ar
    49   44   70       1
    50    5   45       1
    51    5   46       1
    52    6   47       1
    53    8   48       1
    54    9   49       1
    55   10   50       1
    56   11   51       1
    57   12   52       1
    58   14   53       1
    59   18   54       1
    60   18   55       1
    61   20   56       1
    62   43   69       1
    63   28   57       1
    64   28   58       1
    65   29   59       1
    66   31   60       1
    67   32   61       1
    68   33   62       1
    69   34   63       1
    70   35   64       1
    71   37   65       1
    72   41   66       1
    73   41   67       1
    74   42   68       1
@<TRIPOS>SUBSTRUCTURE
     1 NAD289      1 GROUP             4 B     NAD     0 **** NAD B 289
