@<TRIPOS>MOLECULE
1j21_ATP_4_ligand
   43    45     1     0     0
SMALL
NO_CHARGES


@<TRIPOS>ATOM
     1 PG          37.7040    52.4190    35.2900 P.3          1 ATP3510   0.0000
     2 O1G         38.9600    53.1980    35.5880 O.co2        1 ATP3510   0.0000
     3 O2G         37.9290    51.1580    34.5470 O.co2        1 ATP3510  -1.0000
     4 O3G         36.8930    52.1870    36.5190 O.co2        1 ATP3510  -1.0000
     5 PB          36.0340    54.6330    34.8090 P.3          1 ATP3510   0.0000
     6 O1B         35.5780    55.4740    33.6930 O.co2        1 ATP3510   0.0000
     7 O2B         36.2650    55.2300    36.1460 O.co2        1 ATP3510  -1.0000
     8 O3B         36.7330    53.2830    34.4270 O.3          1 ATP3510   0.0000
     9 PA          33.0160    54.8680    34.8980 P.3          1 ATP3510   0.0000
    10 O1A         32.5610    56.0440    35.6240 O.co2        1 ATP3510   0.0000
    11 O2A         32.3380    54.4110    33.6660 O.co2        1 ATP3510  -1.0000
    12 O3A         34.4410    54.2070    35.2250 O.3          1 ATP3510   0.0000
    13 O5'         32.4040    53.7820    35.6470 O.3          1 ATP3510   0.0000
    14 C5'         32.1650    52.5920    35.9040 C.3          1 ATP3510   0.0000
    15 C4'         31.3580    51.4450    36.2810 C.3          1 ATP3510   0.0000
    16 O4'         30.4850    51.2800    35.1460 O.3          1 ATP3510   0.0000
    17 C3'         32.5150    50.5750    36.1940 C.3          1 ATP3510   0.0000
    18 O3'         33.2350    50.3470    37.3700 O.3          1 ATP3510   0.0000
    19 C2'         31.9210    49.3700    35.5020 C.3          1 ATP3510   0.0000
    20 O2'         31.4510    48.4890    36.4900 O.3          1 ATP3510   0.0000
    21 C1'         30.7760    49.9380    34.5970 C.3          1 ATP3510   0.0000
    22 N9          31.1560    50.1020    33.1640 N.pl3        1 ATP3510   0.0000
    23 C8          31.3970    51.2700    32.4160 C.2          1 ATP3510   0.0000
    24 N7          31.7040    51.0530    31.1740 N.2          1 ATP3510   0.0000
    25 C5          31.6660    49.6550    31.0860 C.ar         1 ATP3510   0.0000
    26 C6          31.9000    48.7210    29.9950 C.ar         1 ATP3510   0.0000
    27 N6          32.2220    49.1380    28.7800 N.pl3        1 ATP3510   0.0000
    28 N1          31.7810    47.3560    30.2380 N.ar         1 ATP3510   0.0000
    29 C2          31.4520    46.9060    31.4710 C.ar         1 ATP3510   0.0000
    30 N3          31.2070    47.6760    32.5680 N.ar         1 ATP3510   0.0000
    31 C4          31.3380    49.0730    32.2880 C.ar         1 ATP3510   0.0000
    32 H5'1        32.8600    52.4843    36.6149 H            1 ATP3510   0.0000
    33 H5'2        32.5076    52.2157    35.0432 H            1 ATP3510   0.0000
    34 H4'         30.9123    51.4957    37.1747 H            1 ATP3510   0.0000
    35 H3'         33.1473    50.9986    35.5453 H            1 ATP3510   0.0000
    36 H5          33.9526    51.0375    37.4607 H            1 ATP3510   0.0000
    37 H2'         32.6138    48.9191    34.9392 H            1 ATP3510   0.0000
    38 H7          32.1803    47.8539    36.7446 H            1 ATP3510   0.0000
    39 H1'         29.9651    49.3574    34.6697 H            1 ATP3510   0.0000
    40 H9          31.3368    52.1880    32.8081 H            1 ATP3510   0.0000
    41 H10         32.3773    48.4742    28.0484 H            1 ATP3510   0.0000
    42 H11         32.3098    50.1167    28.5942 H            1 ATP3510   0.0000
    43 H12         31.3821    45.9153    31.5880 H            1 ATP3510   0.0000
@<TRIPOS>BOND
     1    1    2      ar
     2    1    3      ar
     3    1    4      ar
     4    1    8       1
     5    5    6      ar
     6    5    7      ar
     7    5    8       1
     8    5   12       1
     9    9   10      ar
    10    9   11      ar
    11    9   12       1
    12    9   13       1
    13   13   14       1
    14   14   15       1
    15   15   16       1
    16   15   17       1
    17   16   21       1
    18   17   18       1
    19   17   19       1
    20   19   20       1
    21   19   21       1
    22   21   22       1
    23   22   23       1
    24   22   31       1
    25   23   24       2
    26   24   25       1
    27   25   26      ar
    28   25   31      ar
    29   26   27       1
    30   26   28      ar
    31   28   29      ar
    32   29   30      ar
    33   30   31      ar
    34   29   43       1
    35   27   42       1
    36   27   41       1
    37   23   40       1
    38   14   32       1
    39   14   33       1
    40   15   34       1
    41   17   35       1
    42   18   36       1
    43   19   37       1
    44   20   38       1
    45   21   39       1
@<TRIPOS>SUBSTRUCTURE
     1 ATP3510     1 GROUP             4 D     ATP     0 **** ATP D3510
