@<TRIPOS>MOLECULE
2r5n_TPP_1_ligand
   43    44     1     0     0
SMALL
NO_CHARGES


@<TRIPOS>ATOM
     1 N1'         23.8140    41.4070    61.3270 N.ar         1 TPP672   1.0000
     2 C2'         22.5590    41.3200    61.8130 C.ar         1 TPP672   0.0000
     3 CM2         21.5810    42.5000    61.7080 C.3          1 TPP672   0.0000
     4 N3'         22.1470    40.1910    62.4020 N.ar         1 TPP672   0.0000
     5 C4'         22.9830    39.1240    62.5020 C.ar         1 TPP672   0.0000
     6 N4'         22.5260    38.0140    63.0830 N.pl3        1 TPP672   0.0000
     7 C5'         24.3020    39.1840    62.0040 C.ar         1 TPP672   0.0000
     8 C6'         24.6880    40.3920    61.3970 C.ar         1 TPP672   0.0000
     9 C7'         25.3400    38.0100    62.1180 C.3          1 TPP672   0.0000
    10 N3          25.7860    37.9490    63.5530 N.2          1 TPP672   1.0000
    11 C2          25.2080    37.1400    64.4860 C.2          1 TPP672   0.0000
    12 S1          25.9440    37.3820    66.0550 S.3          1 TPP672   0.0000
    13 C5          27.0380    38.5750    65.4170 C.2          1 TPP672   0.0000
    14 C4          26.7660    38.7340    64.0540 C.2          1 TPP672   0.0000
    15 CM4         27.5730    39.7290    63.2060 C.3          1 TPP672   0.0000
    16 C6          28.1070    39.3440    66.1990 C.3          1 TPP672   0.0000
    17 C7          28.3560    38.8620    67.6120 C.3          1 TPP672   0.0000
    18 O7          27.4330    39.5410    68.4070 O.3          1 TPP672   0.0000
    19 PA          27.3120    39.1830    69.9240 P.3          1 TPP672   0.0000
    20 O1A         28.4380    40.0170    70.7280 O.co2        1 TPP672   0.0000
    21 O2A         25.9180    39.4660    70.4030 O.co2        1 TPP672  -1.0000
    22 O3A         27.6240    37.5930    69.9580 O.3          1 TPP672   0.0000
    23 PB          27.9630    36.6910    71.2620 P.3          1 TPP672   0.0000
    24 O1B         28.9270    37.3360    72.1900 O.co2        1 TPP672   0.0000
    25 O2B         26.5620    36.2820    71.9110 O.co2        1 TPP672  -1.0000
    26 O3B         28.4900    35.3160    70.6590 O.co2        1 TPP672  -1.0000
    27 HM21        20.7066    42.2461    62.1215 H            1 TPP672   0.0000
    28 HM22        21.9599    43.2908    62.1887 H            1 TPP672   0.0000
    29 HM23        21.4398    42.7313    60.7454 H            1 TPP672   0.0000
    30 H4'1        23.1199    37.2142    63.1697 H            1 TPP672   0.0000
    31 H4'2        21.5894    37.9815    63.4319 H            1 TPP672   0.0000
    32 H6'         25.6085    40.4938    61.0198 H            1 TPP672   0.0000
    33 H7'1        26.1239    38.1867    61.5227 H            1 TPP672   0.0000
    34 H7'2        24.9103    37.1460    61.8557 H            1 TPP672   0.0000
    35 H9          24.4655    36.4967    64.2993 H            1 TPP672   0.0000
    36 HM41        28.2398    40.1971    63.7859 H            1 TPP672   0.0000
    37 HM42        28.0512    39.2363    62.4790 H            1 TPP672   0.0000
    38 HM43        26.9532    40.4013    62.8012 H            1 TPP672   0.0000
    39 H13         27.8244    40.3021    66.2459 H            1 TPP672   0.0000
    40 H14         28.9673    39.2746    65.6940 H            1 TPP672   0.0000
    41 H15         29.2895    39.0808    67.8962 H            1 TPP672   0.0000
    42 H16         28.2113    37.8745    67.6747 H            1 TPP672   0.0000
    43 H1'         24.1044    42.2621    60.8975 H            1 TPP672   0.0000
@<TRIPOS>BOND
     1    1    2      ar
     2    1    8      ar
     3    2    3       1
     4    2    4      ar
     5    4    5      ar
     6    5    6       1
     7    5    7      ar
     8    7    8      ar
     9    7    9       1
    10    9   10       1
    11   10   11       2
    12   10   14       1
    13   11   12       1
    14   12   13       1
    15   13   14       2
    16   13   16       1
    17   14   15       1
    18   16   17       1
    19   17   18       1
    20   18   19       1
    21   19   20      ar
    22   19   21      ar
    23   19   22       1
    24   22   23       1
    25   23   24      ar
    26   23   25      ar
    27   23   26      ar
    28    3   27       1
    29    3   28       1
    30    3   29       1
    31    6   30       1
    32    6   31       1
    33    8   32       1
    34    9   33       1
    35    9   34       1
    36   11   35       1
    37   15   36       1
    38   15   37       1
    39   15   38       1
    40   16   39       1
    41   16   40       1
    42   17   41       1
    43   17   42       1
    44    1   43       1
@<TRIPOS>SUBSTRUCTURE
     1 TPP672      1 GROUP             4 A     TPP     0 **** TPP A 672
