@<TRIPOS>MOLECULE
4hmx_FMN_2_ligand
   50    52     1     0     0
SMALL
NO_CHARGES


@<TRIPOS>ATOM
     1 N1         -31.6050    17.1170     7.0610 N.2          1 FMN301   0.0000
     2 C2         -31.3780    16.9820     8.4050 C.2          1 FMN301   0.0000
     3 O2         -31.6970    15.9470     8.9630 O.2          1 FMN301   0.0000
     4 N3         -30.8190    18.0110     9.1300 N.pl3        1 FMN301   0.0000
     5 C4         -30.5200    19.2180     8.5870 C.2          1 FMN301   0.0000
     6 O4         -29.9970    20.1470     9.2690 O.2          1 FMN301   0.0000
     7 C4A        -30.7520    19.3810     7.2150 C.2          1 FMN301   0.0000
     8 N5         -30.4980    20.5990     6.6220 N.2          1 FMN301   0.0000
     9 C5A        -30.6720    20.6780     5.2270 C.ar         1 FMN301   0.0000
    10 C6         -30.3970    21.8750     4.5640 C.ar         1 FMN301   0.0000
    11 C7         -30.5220    22.0030     3.2050 C.ar         1 FMN301   0.0000
    12 C7M        -30.1800    23.3260     2.5610 C.3          1 FMN301   0.0000
    13 C8         -31.0200    20.9540     2.4650 C.ar         1 FMN301   0.0000
    14 C8M        -31.1300    21.1040     0.9770 C.3          1 FMN301   0.0000
    15 C9         -31.3080    19.7480     3.0700 C.ar         1 FMN301   0.0000
    16 C9A        -31.1720    19.6320     4.4810 C.ar         1 FMN301   0.0000
    17 N10        -31.5130    18.4570     5.1160 N.pl3        1 FMN301   0.0000
    18 C10        -31.2870    18.3250     6.4760 C.2          1 FMN301   0.0000
    19 C1'        -32.0640    17.2730     4.4080 C.3          1 FMN301   0.0000
    20 C2'        -30.9640    16.2730     4.0660 C.3          1 FMN301   0.0000
    21 O2'        -30.2010    16.8070     2.9680 O.3          1 FMN301   0.0000
    22 C3'        -31.4760    14.8820     3.7510 C.3          1 FMN301   0.0000
    23 O3'        -32.4270    14.9270     2.6720 O.3          1 FMN301   0.0000
    24 C4'        -32.1270    14.1800     4.9610 C.3          1 FMN301   0.0000
    25 O4'        -31.4050    14.5770     6.1360 O.3          1 FMN301   0.0000
    26 C5'        -32.1140    12.6470     4.7540 C.3          1 FMN301   0.0000
    27 O5'        -30.7790    12.2090     4.5990 O.3          1 FMN301   0.0000
    28 P          -30.4490    10.6580     4.6890 P.3          1 FMN301   0.0000
    29 O1P        -30.4250    10.2830     6.1550 O.co2        1 FMN301   0.0000
    30 O2P        -31.5630     9.8920     4.0180 O.co2        1 FMN301  -1.0000
    31 O3P        -29.1370    10.5490     3.9900 O.co2        1 FMN301  -1.0000
    32 H1         -30.6249    17.8620    10.0996 H            1 FMN301   0.0000
    33 H2         -30.0987    22.6659     5.0984 H            1 FMN301   0.0000
    34 H7M1       -30.3208    23.2621     1.5730 H            1 FMN301   0.0000
    35 H7M2       -30.7694    24.0415     2.9361 H            1 FMN301   0.0000
    36 H7M3       -29.2235    23.5502     2.7476 H            1 FMN301   0.0000
    37 H8M1       -31.5058    20.2646     0.5842 H            1 FMN301   0.0000
    38 H8M2       -31.7341    21.8717     0.7631 H            1 FMN301   0.0000
    39 H8M3       -30.2235    21.2757     0.5914 H            1 FMN301   0.0000
    40 H9         -31.6083    18.9660     2.5238 H            1 FMN301   0.0000
    41 H1'1       -32.5049    17.5745     3.5626 H            1 FMN301   0.0000
    42 H1'2       -32.7392    16.8268     4.9954 H            1 FMN301   0.0000
    43 H2'        -30.3559    16.2039     4.8568 H            1 FMN301   0.0000
    44 H13        -29.4461    17.3582     3.3235 H            1 FMN301   0.0000
    45 H3'        -30.6988    14.3272     3.4541 H            1 FMN301   0.0000
    46 H15        -32.0951    14.3688     1.9116 H            1 FMN301   0.0000
    47 H4'        -33.0748    14.4881     5.0433 H            1 FMN301   0.0000
    48 H17        -31.8206    15.4015     6.5199 H            1 FMN301   0.0000
    49 H5'1       -32.6389    12.4159     3.9348 H            1 FMN301   0.0000
    50 H5'2       -32.5226    12.1989     5.5491 H            1 FMN301   0.0000
@<TRIPOS>BOND
     1    1    2       1
     2    1   18       2
     3    2    3       2
     4    2    4       1
     5    4    5       1
     6    5    6       2
     7    5    7       1
     8    7    8       2
     9    7   18       1
    10    8    9       1
    11    9   10      ar
    12    9   16      ar
    13   10   11      ar
    14   11   12       1
    15   11   13      ar
    16   13   14       1
    17   13   15      ar
    18   15   16      ar
    19   16   17       1
    20   17   18       1
    21   17   19       1
    22   19   20       1
    23   20   21       1
    24   20   22       1
    25   22   23       1
    26   22   24       1
    27   24   25       1
    28   24   26       1
    29   26   27       1
    30   27   28       1
    31   28   29      ar
    32   28   30      ar
    33   28   31      ar
    34    4   32       1
    35   10   33       1
    36   12   34       1
    37   12   35       1
    38   12   36       1
    39   14   37       1
    40   14   38       1
    41   14   39       1
    42   15   40       1
    43   19   41       1
    44   19   42       1
    45   20   43       1
    46   21   44       1
    47   22   45       1
    48   23   46       1
    49   24   47       1
    50   25   48       1
    51   26   49       1
    52   26   50       1
@<TRIPOS>SUBSTRUCTURE
     1 FMN301      1 GROUP             4 A     FMN     0 **** FMN A 301
