@<TRIPOS>MOLECULE
2a2d_ANP_1_ligand
   44    46     1     0     0
SMALL
NO_CHARGES


@<TRIPOS>ATOM
     1 PG          16.2610    77.1950    -1.0610 P.3          1 ANP461   0.0000
     2 O1G         17.1000    77.2140    -2.2950 O.co2        1 ANP461   0.0000
     3 O2G         15.7900    78.5950    -0.7160 O.co2        1 ANP461  -1.0000
     4 O3G         17.2200    76.8330     0.1660 O.co2        1 ANP461  -1.0000
     5 PB          14.5740    74.7460    -2.0300 P.3          1 ANP461   0.0000
     6 O1B         15.8770    74.0580    -2.2880 O.co2        1 ANP461   0.0000
     7 O2B         13.6820    73.8720    -1.1840 O.co2        1 ANP461  -1.0000
     8 N3B         14.9480    76.1750    -1.2690 N.3          1 ANP461   0.0000
     9 PA          14.5730    74.7920    -4.8810 P.3          1 ANP461   0.0000
    10 O1A         13.9540    75.7960    -5.7200 O.co2        1 ANP461   0.0000
    11 O2A         16.0400    75.1020    -4.7480 O.co2        1 ANP461  -1.0000
    12 O3A         13.8640    74.8340    -3.4400 O.3          1 ANP461   0.0000
    13 O5'         14.4140    73.4330    -5.6450 O.3          1 ANP461   0.0000
    14 C5'         13.1770    72.7530    -5.5230 C.3          1 ANP461   0.0000
    15 C4'         13.2740    71.5850    -6.4890 C.3          1 ANP461   0.0000
    16 O4'         14.1260    70.4860    -6.0270 O.3          1 ANP461   0.0000
    17 C3'         11.9500    70.9740    -6.8320 C.3          1 ANP461   0.0000
    18 O3'         11.3420    71.8350    -7.8060 O.3          1 ANP461   0.0000
    19 C2'         12.4050    69.6090    -7.3350 C.3          1 ANP461   0.0000
    20 O2'         12.7180    69.7000    -8.7180 O.3          1 ANP461   0.0000
    21 C1'         13.6660    69.2910    -6.5440 C.3          1 ANP461   0.0000
    22 N9          13.3630    68.3710    -5.4580 N.pl3        1 ANP461   0.0000
    23 C8          13.1910    68.6170    -4.1300 C.2          1 ANP461   0.0000
    24 N7          12.8170    67.5390    -3.4340 N.2          1 ANP461   0.0000
    25 C5          12.7800    66.5360    -4.3810 C.ar         1 ANP461   0.0000
    26 C6          12.4820    65.1690    -4.2630 C.ar         1 ANP461   0.0000
    27 N6          12.1580    64.4960    -3.2590 N.pl3        1 ANP461   0.0000
    28 N1          12.6040    64.5470    -5.4380 N.ar         1 ANP461   0.0000
    29 C2          12.9070    65.1230    -6.6280 C.ar         1 ANP461   0.0000
    30 N3          13.2040    66.3750    -6.7730 N.ar         1 ANP461   0.0000
    31 C4          13.1260    67.0320    -5.6190 C.ar         1 ANP461   0.0000
    32 H3B         14.7006    75.9696    -0.3221 H            1 ANP461   0.0000
    33 H5'1        12.4188    73.3548    -5.7740 H            1 ANP461   0.0000
    34 H5'2        13.0468    72.4254    -4.5872 H            1 ANP461   0.0000
    35 H4'         13.6707    71.9329    -7.3384 H            1 ANP461   0.0000
    36 H3'         11.3732    70.8848    -6.0200 H            1 ANP461   0.0000
    37 H6          10.4727    72.1786    -7.4508 H            1 ANP461   0.0000
    38 H2'         11.7005    68.9177    -7.1744 H            1 ANP461   0.0000
    39 H8          11.8999    69.5038    -9.2585 H            1 ANP461   0.0000
    40 H1'         14.3562    68.8917    -7.1475 H            1 ANP461   0.0000
    41 H10         13.3308    69.5164    -3.7158 H            1 ANP461   0.0000
    42 H11         11.9775    63.5167    -3.3505 H            1 ANP461   0.0000
    43 H12         12.0796    64.9375    -2.3652 H            1 ANP461   0.0000
    44 H13         12.9006    64.5449    -7.4440 H            1 ANP461   0.0000
@<TRIPOS>BOND
     1    1    2      ar
     2    1    3      ar
     3    1    4      ar
     4    1    8       1
     5    5    6      ar
     6    5    7      ar
     7    5    8       1
     8    5   12       1
     9    9   10      ar
    10    9   11      ar
    11    9   12       1
    12    9   13       1
    13   13   14       1
    14   14   15       1
    15   15   16       1
    16   15   17       1
    17   16   21       1
    18   17   18       1
    19   17   19       1
    20   19   20       1
    21   19   21       1
    22   21   22       1
    23   22   23       1
    24   22   31       1
    25   23   24       2
    26   24   25       1
    27   25   26      ar
    28   25   31      ar
    29   26   27       1
    30   26   28      ar
    31   28   29      ar
    32   29   30      ar
    33   30   31      ar
    34   29   44       1
    35   27   43       1
    36   27   42       1
    37    8   32       1
    38   23   41       1
    39   14   33       1
    40   14   34       1
    41   15   35       1
    42   17   36       1
    43   18   37       1
    44   19   38       1
    45   20   39       1
    46   21   40       1
@<TRIPOS>SUBSTRUCTURE
     1 ANP461      1 GROUP             4 A     ANP     0 **** ANP A 461
