@<TRIPOS>MOLECULE
./coach420/1sth/ligand.pdb
 25 22 0 0 0
SMALL
GASTEIGER

@<TRIPOS>ATOM
      1 CO          5.4190   12.8890   16.7910 Co.oh 150  CO150       0.0000
      2  O4P        6.6950   12.0210   21.2220 O.3   151  THP151      0.0000
      3  O5P        5.0750   13.3370   19.9130 O.3   151  THP151      0.0000
      4  O6P        7.4000   14.3110   20.4260 O.3   151  THP151      0.0000
      5  P1         4.9330   11.2750   26.5460 P.3   151  THP151      0.0000
      6  O1P        4.8060   10.9490   27.9780 O.3   151  THP151      0.0000
      7  O2P        6.2200   11.1480   25.8150 O.3   151  THP151      0.0000
      8  O3P        3.8540   10.4240   25.7470 O.2   151  THP151      0.0000
      9  O5'        5.7170   14.0910   22.1900 O.3   151  THP151      0.0000
     10  C5'        4.5760   13.5990   22.8820 C.3   151  THP151      0.0000
     11  C4'        4.9030   13.6610   24.3650 C.3   151  THP151      0.0000
     12  O4'        5.1800   15.0210   24.6920 O.3   151  THP151      0.0000
     13  C3'        3.7540   13.3030   25.2780 C.3   151  THP151      0.0000
     14  O3'        4.3480   12.7930   26.4720 O.3   151  THP151      0.0000
     15  C2'        2.9970   14.5920   25.5150 C.3   151  THP151      0.0000
     16  C1'        4.1620   15.5560   25.5510 C.3   151  THP151      0.0000
     17  N1         3.7140   16.8820   25.0820 N.ar  151  THP151      0.0000
     18  C2         3.3850   17.7840   26.0600 C.ar  151  THP151      0.0000
     19  O2         3.6350   17.6100   27.2500 O.2   151  THP151      0.0000
     20  N3         2.8580   18.9670   25.6360 N.ar  151  THP151      0.0000
     21  C4         2.6420   19.3450   24.3400 C.ar  151  THP151      0.0000
     22  O4         2.0970   20.4260   24.1100 O.2   151  THP151      0.0000
     23  C5         3.0420   18.3690   23.3650 C.ar  151  THP151      0.0000
     24  C5M        2.9320   18.7230   21.8690 C.3   151  THP151      0.0000
     25  C6         3.5470   17.1880   23.7530 C.ar  151  THP151      0.0000
@<TRIPOS>BOND
     1     5     8    2
     2     5     7    1
     3     5    14    1
     4     5     6    1
     5     9    10    1
     6    10    11    1
     7    11    12    1
     8    11    13    1
     9    12    16    1
    10    13    15    1
    11    13    14    1
    12    15    16    1
    13    16    17    1
    14    17    25   ar
    15    17    18   ar
    16    18    20   ar
    17    18    19    2
    18    20    21   ar
    19    21    23   ar
    20    21    22    2
    21    23    24    1
    22    23    25   ar
