@<TRIPOS>MOLECULE
1wa5_GTP_1_ligand
   44    46     1     0     0
SMALL
NO_CHARGES


@<TRIPOS>ATOM
     1 PG          48.1460    18.5600    40.5760 P.3          1 GTP1177   0.0000
     2 O1G         47.5420    19.9160    40.5180 O.co2        1 GTP1177   0.0000
     3 O2G         48.9020    18.5460    41.7660 O.co2        1 GTP1177  -1.0000
     4 O3G         49.0120    18.0250    39.5430 O.co2        1 GTP1177  -1.0000
     5 O3B         46.9880    17.4590    40.8330 O.3          1 GTP1177   0.0000
     6 PB          46.9720    16.0830    41.6880 P.3          1 GTP1177   0.0000
     7 O1B         47.0730    15.1120    40.4930 O.co2        1 GTP1177   0.0000
     8 O2B         48.1160    15.5820    42.4570 O.co2        1 GTP1177  -1.0000
     9 O3A         45.5780    16.0580    42.3090 O.3          1 GTP1177   0.0000
    10 PA          45.3000    15.5260    43.6930 P.3          1 GTP1177   0.0000
    11 O1A         45.7760    14.2590    44.2510 O.co2        1 GTP1177   0.0000
    12 O2A         45.7280    16.4110    44.7190 O.co2        1 GTP1177  -1.0000
    13 O5'         43.7500    15.0550    43.6220 O.3          1 GTP1177   0.0000
    14 C5'         42.5610    15.8160    43.1160 C.3          1 GTP1177   0.0000
    15 C4'         41.1890    15.5710    43.7440 C.3          1 GTP1177   0.0000
    16 O4'         40.6370    14.1350    43.3470 O.3          1 GTP1177   0.0000
    17 C3'         40.9650    15.6400    45.2790 C.3          1 GTP1177   0.0000
    18 O3'         39.5660    16.2170    45.6950 O.3          1 GTP1177   0.0000
    19 C2'         41.0690    14.0590    45.5920 C.3          1 GTP1177   0.0000
    20 O2'         40.3380    13.7200    46.7370 O.3          1 GTP1177   0.0000
    21 C1'         40.5200    13.3490    44.4390 C.3          1 GTP1177   0.0000
    22 N9          40.8590    11.9320    44.0780 N.pl3        1 GTP1177   0.0000
    23 C8          42.1560    11.3720    43.8180 C.2          1 GTP1177   0.0000
    24 N7          42.0340    10.0380    43.5220 N.2          1 GTP1177   0.0000
    25 C5          40.7000     9.7780    43.6070 C.2          1 GTP1177   0.0000
    26 C6          40.0150     8.5410    43.3810 C.2          1 GTP1177   0.0000
    27 O6          40.5900     7.4880    43.0800 O.2          1 GTP1177   0.0000
    28 N1          38.5450     8.5330    43.5380 N.pl3        1 GTP1177   0.0000
    29 C2          37.9180     9.6540    43.8650 C.2          1 GTP1177   0.0000
    30 N2          36.5250     9.5000    43.9780 N.pl3        1 GTP1177   0.0000
    31 N3          38.5690    10.8310    44.0690 N.2          1 GTP1177   0.0000
    32 C4          39.9430    10.8830    43.9320 C.2          1 GTP1177   0.0000
    33 H5'1        42.4762    15.6090    42.1414 H            1 GTP1177   0.0000
    34 H5'2        42.7657    16.7877    43.2338 H            1 GTP1177   0.0000
    35 H4'         40.5660    16.2381    43.3354 H            1 GTP1177   0.0000
    36 H3'         41.7055    16.1420    45.7258 H            1 GTP1177   0.0000
    37 H5          39.4944    16.2310    46.6923 H            1 GTP1177   0.0000
    38 H2'         42.0277    13.8040    45.7180 H            1 GTP1177   0.0000
    39 H7          40.9262    13.7949    47.5423 H            1 GTP1177   0.0000
    40 H1'         39.5360    13.3250    44.6156 H            1 GTP1177   0.0000
    41 H9          43.0179    11.8782    43.8482 H            1 GTP1177   0.0000
    42 H10         38.0279     7.6885    43.3986 H            1 GTP1177   0.0000
    43 H11         35.9534    10.2838    44.2209 H            1 GTP1177   0.0000
    44 H12         36.1059     8.6067    43.8155 H            1 GTP1177   0.0000
@<TRIPOS>BOND
     1    1    2      ar
     2    1    3      ar
     3    1    4      ar
     4    1    5       1
     5    5    6       1
     6    6    7      ar
     7    6    8      ar
     8    6    9       1
     9    9   10       1
    10   10   11      ar
    11   10   12      ar
    12   10   13       1
    13   13   14       1
    14   14   15       1
    15   15   16       1
    16   15   17       1
    17   16   21       1
    18   17   18       1
    19   17   19       1
    20   19   20       1
    21   19   21       1
    22   21   22       1
    23   22   23       1
    24   22   32       1
    25   23   24       2
    26   24   25       1
    27   25   26       1
    28   25   32       2
    29   26   27       2
    30   26   28       1
    31   28   29       1
    32   29   30       1
    33   29   31       2
    34   31   32       1
    35   30   44       1
    36   30   43       1
    37   28   42       1
    38   23   41       1
    39   14   33       1
    40   14   34       1
    41   15   35       1
    42   17   36       1
    43   18   37       1
    44   19   38       1
    45   20   39       1
    46   21   40       1
@<TRIPOS>SUBSTRUCTURE
     1 GTP1177     1 GROUP             4 A     GTP     0 **** GTP A1177
