@<TRIPOS>MOLECULE
2vce_TC7_2_ligand
   13    13     1     0     0
SMALL
NO_CHARGES


@<TRIPOS>ATOM
     1 C1          15.0430    26.6550    28.8460 C.ar         1 TC71478   0.0000
     2 C2          13.9210    27.4510    28.9400 C.ar         1 TC71478   0.0000
     3 C3          13.8870    28.6260    28.2130 C.ar         1 TC71478   0.0000
     4 C4          14.9890    28.9800    27.4160 C.ar         1 TC71478   0.0000
     5 C5          16.1250    28.2100    27.3380 C.ar         1 TC71478   0.0000
     6 C6          16.1130    27.0340    28.0730 C.ar         1 TC71478   0.0000
     7 CL1         15.0900    30.4660    26.4710 Cl           1 TC71478   0.0000
     8 CL3         17.5780    26.0400    27.9330 Cl           1 TC71478   0.0000
     9 O1          12.7700    29.3850    28.2970 O.3          1 TC71478   0.0000
    10 CL5         15.1090    25.1600    29.7970 Cl           1 TC71478   0.0000
    11 H1          13.1510    27.1847    29.5198 H            1 TC71478   0.0000
    12 H2          16.9125    28.4814    26.7847 H            1 TC71478   0.0000
    13 H3          12.7082    30.2420    27.7854 H            1 TC71478   0.0000
@<TRIPOS>BOND
     1    1    2      ar
     2    1    6      ar
     3    1   10       1
     4    2    3      ar
     5    3    4      ar
     6    3    9       1
     7    4    5      ar
     8    4    7       1
     9    5    6      ar
    10    6    8       1
    11    2   11       1
    12    5   12       1
    13    9   13       1
@<TRIPOS>SUBSTRUCTURE
     1 TC71478     1 GROUP             4 A     TC7     0 **** TC7 A1478
