@<TRIPOS>MOLECULE
2gej_GDD_1_ligand
   62    65     1     0     0
SMALL
NO_CHARGES


@<TRIPOS>ATOM
     1 N2           3.8970    50.7450    29.0900 N.pl3        1 GDD2567   0.0000
     2 C2           2.7850    50.2180    29.5620 C.2          1 GDD2567   0.0000
     3 N1           2.1080    50.9870    30.4790 N.pl3        1 GDD2567   0.0000
     4 N3           2.3400    49.0060    29.1880 N.2          1 GDD2567   0.0000
     5 C4           1.1770    48.5670    29.6750 C.2          1 GDD2567   0.0000
     6 C5           0.4210    49.3130    30.5890 C.2          1 GDD2567   0.0000
     7 C6           0.8950    50.5660    31.0030 C.2          1 GDD2567   0.0000
     8 O6           0.2980    51.3090    31.8090 O.2          1 GDD2567   0.0000
     9 N7          -0.6790    48.5960    30.9040 N.2          1 GDD2567   0.0000
    10 C8          -0.6290    47.4460    30.2110 C.2          1 GDD2567   0.0000
    11 N9           0.5100    47.4330    29.4740 N.pl3        1 GDD2567   0.0000
    12 C1'          0.9030    46.3890    28.5600 C.3          1 GDD2567   0.0000
    13 C2'          1.1970    45.1680    29.3470 C.3          1 GDD2567   0.0000
    14 O2'          2.5580    45.2820    29.7140 O.3          1 GDD2567   0.0000
    15 C3'          0.9410    44.1010    28.2610 C.3          1 GDD2567   0.0000
    16 O3'          2.0160    43.9440    27.3050 O.3          1 GDD2567   0.0000
    17 C4'         -0.2680    44.7010    27.4790 C.3          1 GDD2567   0.0000
    18 O4'         -0.3730    46.0720    27.9330 O.3          1 GDD2567   0.0000
    19 C5'         -1.5400    43.9270    27.8040 C.3          1 GDD2567   0.0000
    20 O5'         -1.6910    43.7040    29.1710 O.3          1 GDD2567   0.0000
    21 PA          -3.0770    44.0560    29.8520 P.3          1 GDD2567   0.0000
    22 O1A         -3.1420    43.4550    31.2510 O.co2        1 GDD2567   0.0000
    23 O2A         -3.3660    45.5330    29.8420 O.co2        1 GDD2567  -1.0000
    24 O3A         -4.0670    43.0490    29.0530 O.3          1 GDD2567   0.0000
    25 PB          -5.3360    43.5260    28.2250 P.3          1 GDD2567   0.0000
    26 O2B         -6.3190    44.1200    29.4230 O.co2        1 GDD2567   0.0000
    27 O3B         -4.9920    44.5010    27.1840 O.co2        1 GDD2567  -1.0000
    28 O1B         -5.9630    42.1740    27.6880 O.3          1 GDD2567   0.0000
    29 C11         -5.3770    41.4960    26.5960 C.3          1 GDD2567   0.0000
    30 O51         -4.0130    41.1410    27.0330 O.3          1 GDD2567   0.0000
    31 C51         -3.9440    40.0680    28.0260 C.3          1 GDD2567   0.0000
    32 C61         -2.4510    39.9310    28.0760 C.3          1 GDD2567   0.0000
    33 O6A         -2.1020    38.7740    27.3930 O.3          1 GDD2567   0.0000
    34 C21         -6.3110    40.3110    26.2860 C.3          1 GDD2567   0.0000
    35 O21         -5.8500    39.6130    25.1620 O.3          1 GDD2567   0.0000
    36 C31         -6.2710    39.2660    27.3780 C.3          1 GDD2567   0.0000
    37 O31         -7.1340    38.1450    27.0260 O.3          1 GDD2567   0.0000
    38 C41         -4.7770    38.8280    27.6260 C.3          1 GDD2567   0.0000
    39 O41         -4.7000    37.8280    28.6650 O.3          1 GDD2567   0.0000
    40 H1           4.4427    50.2430    28.4190 H            1 GDD2567   0.0000
    41 H2           4.1950    51.6468    29.4029 H            1 GDD2567   0.0000
    42 H3           2.4953    51.8612    30.7719 H            1 GDD2567   0.0000
    43 H4          -1.3168    46.7205    30.2345 H            1 GDD2567   0.0000
    44 H1'          1.6245    46.6511    27.9190 H            1 GDD2567   0.0000
    45 H2'          0.5929    45.0651    30.1372 H            1 GDD2567   0.0000
    46 H7           2.9584    44.3694    29.7971 H            1 GDD2567   0.0000
    47 H3'          0.6990    43.2228    28.6734 H            1 GDD2567   0.0000
    48 H9           2.8515    43.6751    27.7841 H            1 GDD2567   0.0000
    49 H4'         -0.0900    44.6756    26.4953 H            1 GDD2567   0.0000
    50 H5'1        -1.5069    43.0438    27.3362 H            1 GDD2567   0.0000
    51 H5'2        -2.3267    44.4493    27.4749 H            1 GDD2567   0.0000
    52 H13         -5.3306    42.1059    25.8049 H            1 GDD2567   0.0000
    53 H14         -4.2714    40.4134    28.9055 H            1 GDD2567   0.0000
    54 H15         -2.1479    39.8680    29.0269 H            1 GDD2567   0.0000
    55 H16         -2.0230    40.7235    27.6415 H            1 GDD2567   0.0000
    56 H6A         -1.5009    39.0067    26.6285 H            1 GDD2567   0.0000
    57 H18         -7.2472    40.6309    26.1407 H            1 GDD2567   0.0000
    58 H19         -4.8544    39.6890    25.1076 H            1 GDD2567   0.0000
    59 H20         -6.6204    39.6784    28.2193 H            1 GDD2567   0.0000
    60 H21         -6.8186    37.7378    26.1689 H            1 GDD2567   0.0000
    61 H22         -4.4056    38.4464    26.7796 H            1 GDD2567   0.0000
    62 H23         -3.7466    37.5564    28.7963 H            1 GDD2567   0.0000
@<TRIPOS>BOND
     1    1    2       1
     2    2    3       1
     3    2    4       2
     4    3    7       1
     5    4    5       1
     6    5    6       2
     7    5   11       1
     8    6    7       1
     9    6    9       1
    10    7    8       2
    11    9   10       2
    12   10   11       1
    13   11   12       1
    14   12   13       1
    15   12   18       1
    16   13   14       1
    17   13   15       1
    18   15   16       1
    19   15   17       1
    20   17   18       1
    21   17   19       1
    22   19   20       1
    23   20   21       1
    24   21   22      ar
    25   21   23      ar
    26   21   24       1
    27   24   25       1
    28   25   26      ar
    29   25   27      ar
    30   25   28       1
    31   28   29       1
    32   29   30       1
    33   29   34       1
    34   30   31       1
    35   31   32       1
    36   31   38       1
    37   32   33       1
    38   34   35       1
    39   34   36       1
    40   36   37       1
    41   36   38       1
    42   38   39       1
    43    1   40       1
    44    1   41       1
    45    3   42       1
    46   10   43       1
    47   12   44       1
    48   13   45       1
    49   14   46       1
    50   15   47       1
    51   16   48       1
    52   17   49       1
    53   19   50       1
    54   19   51       1
    55   39   62       1
    56   38   61       1
    57   29   52       1
    58   31   53       1
    59   32   54       1
    60   32   55       1
    61   33   56       1
    62   34   57       1
    63   35   58       1
    64   36   59       1
    65   37   60       1
@<TRIPOS>SUBSTRUCTURE
     1 GDD2567     1 GROUP             4 A     GDD     0 **** GDD A2567
