@<TRIPOS>MOLECULE
1nqv_LMZ_1_ligand
   34    34     1     0     0
SMALL
NO_CHARGES


@<TRIPOS>ATOM
     1 N1         143.1710    14.7780   143.9180 N.pl3        1 LMZ1201   0.0000
     2 C2         144.1900    15.5770   143.6570 C.2          1 LMZ1201   0.0000
     3 N3         145.1790    15.6570   144.5490 N.pl3        1 LMZ1201   0.0000
     4 C4         145.2720    14.9600   145.6880 C.2          1 LMZ1201   0.0000
     5 C5         144.2820    14.1310   146.0100 C.2          1 LMZ1201   0.0000
     6 C6         143.0850    14.0980   145.1370 C.2          1 LMZ1201   0.0000
     7 N7         142.0320    13.1570   145.3080 N.pl3        1 LMZ1201   0.0000
     8 C8         140.8220    13.5060   144.5570 C.3          1 LMZ1201   0.0000
     9 C9         140.8010    12.6040   143.3240 C.3          1 LMZ1201   0.0000
    10 O9         141.6630    13.1500   142.3080 O.3          1 LMZ1201   0.0000
    11 C10        139.3890    12.3940   142.7450 C.3          1 LMZ1201   0.0000
    12 O10        138.7630    13.6640   142.5300 O.3          1 LMZ1201   0.0000
    13 C11        138.4650    11.5450   143.6540 C.3          1 LMZ1201   0.0000
    14 O11        139.0780    10.2630   143.8540 O.3          1 LMZ1201   0.0000
    15 C12        137.0560    11.2950   143.0320 C.3          1 LMZ1201   0.0000
    16 O12        137.1550    10.7010   141.7570 O.3          1 LMZ1201   0.0000
    17 N5         144.2910    13.4450   147.1640 N.2          1 LMZ1201   0.0000
    18 O52        143.4280    12.5530   147.3110 O.2          1 LMZ1201   0.0000
    19 O4         146.2620    15.0870   146.4280 O.2          1 LMZ1201   0.0000
    20 O2         144.2580    16.2660   142.6580 O.2          1 LMZ1201   0.0000
    21 H1         142.4511    14.6577   143.2344 H            1 LMZ1201   0.0000
    22 H2         145.9201    16.2976   144.3478 H            1 LMZ1201   0.0000
    23 H3         142.1091    12.3414   145.8814 H            1 LMZ1201   0.0000
    24 H4         140.8515    14.4669   144.2816 H            1 LMZ1201   0.0000
    25 H5         140.0093    13.3446   145.1169 H            1 LMZ1201   0.0000
    26 H6         141.1627    11.7101   143.5887 H            1 LMZ1201   0.0000
    27 H7         142.5862    12.7828   142.4215 H            1 LMZ1201   0.0000
    28 H8         139.4753    11.9313   141.8627 H            1 LMZ1201   0.0000
    29 H9         138.5388    13.7653   141.5607 H            1 LMZ1201   0.0000
    30 H10        138.3598    12.0022   144.5371 H            1 LMZ1201   0.0000
    31 H11        138.4715     9.5462   143.5100 H            1 LMZ1201   0.0000
    32 H12        136.5778    12.1692   142.9475 H            1 LMZ1201   0.0000
    33 H13        136.5374    10.6882   143.6343 H            1 LMZ1201   0.0000
    34 H14        137.2017    11.4156   141.0591 H            1 LMZ1201   0.0000
@<TRIPOS>BOND
     1    1    2       1
     2    1    6       1
     3    2    3       1
     4    2   20       2
     5    3    4       1
     6    4    5       1
     7    4   19       2
     8    5    6       2
     9    5   17       1
    10    6    7       1
    11    7    8       1
    12    8    9       1
    13    9   10       1
    14    9   11       1
    15   11   12       1
    16   11   13       1
    17   13   14       1
    18   13   15       1
    19   15   16       1
    20   17   18       2
    21    1   21       1
    22    3   22       1
    23    7   23       1
    24    8   24       1
    25    8   25       1
    26    9   26       1
    27   10   27       1
    28   11   28       1
    29   12   29       1
    30   13   30       1
    31   14   31       1
    32   15   32       1
    33   15   33       1
    34   16   34       1
@<TRIPOS>SUBSTRUCTURE
     1 LMZ1201     1 GROUP             4 A     LMZ     0 **** LMZ A1201
