@<TRIPOS>MOLECULE
1ek5_NAD_1_ligand
   70    74     1     0     0
SMALL
NO_CHARGES


@<TRIPOS>ATOM
     1 PA          -2.8930    17.0810    54.4710 P.3          1 NAD400   0.0000
     2 O1A         -3.3720    17.2520    55.8680 O.co2        1 NAD400   0.0000
     3 O2A         -3.0210    18.3310    53.6600 O.co2        1 NAD400  -1.0000
     4 O5B         -3.8500    15.9750    53.8510 O.3          1 NAD400   0.0000
     5 C5B         -4.2700    14.7950    54.5630 C.3          1 NAD400   0.0000
     6 C4B         -5.7590    14.7770    54.3320 C.3          1 NAD400   0.0000
     7 O4B         -6.3420    13.6340    54.9700 O.3          1 NAD400   0.0000
     8 C3B         -6.5490    15.9740    54.8140 C.3          1 NAD400   0.0000
     9 O3B         -7.4070    16.3550    53.7600 O.3          1 NAD400   0.0000
    10 C2B         -7.3070    15.4070    56.0120 C.3          1 NAD400   0.0000
    11 O2B         -8.5790    16.0390    56.1400 O.3          1 NAD400   0.0000
    12 C1B         -7.5410    13.9930    55.5180 C.3          1 NAD400   0.0000
    13 N9A         -7.7150    13.0480    56.6110 N.pl3        1 NAD400   0.0000
    14 C8A         -7.0920    13.0360    57.8410 C.2          1 NAD400   0.0000
    15 N7A         -7.5860    12.0770    58.6450 N.2          1 NAD400   0.0000
    16 C5A         -8.5730    11.4620    57.8610 C.ar         1 NAD400   0.0000
    17 C6A         -9.4490    10.4060    58.1130 C.ar         1 NAD400   0.0000
    18 N6A         -9.5040     9.7640    59.2780 N.pl3        1 NAD400   0.0000
    19 N1A        -10.2660    10.0040    57.1010 N.ar         1 NAD400   0.0000
    20 C2A        -10.2380    10.6710    55.9100 C.ar         1 NAD400   0.0000
    21 N3A         -9.4680    11.6530    55.5860 N.ar         1 NAD400   0.0000
    22 C4A         -8.6220    12.0030    56.5920 C.ar         1 NAD400   0.0000
    23 O3          -1.4090    16.6730    54.5170 O.3          1 NAD400   0.0000
    24 PN          -0.4100    16.0820    53.3990 P.3          1 NAD400   0.0000
    25 O1N          0.9580    16.5550    53.7250 O.co2        1 NAD400   0.0000
    26 O2N         -0.9140    16.7090    52.1400 O.co2        1 NAD400  -1.0000
    27 O5D         -0.2540    14.5480    53.0740 O.3          1 NAD400   0.0000
    28 C5D         -0.9440    13.5360    53.7450 C.3          1 NAD400   0.0000
    29 C4D         -0.0390    12.3420    53.6530 C.3          1 NAD400   0.0000
    30 O4D          1.2830    12.7960    53.2470 O.3          1 NAD400   0.0000
    31 C3D          0.1210    11.5900    54.9710 C.3          1 NAD400   0.0000
    32 O3D          0.1850    10.1870    54.7240 O.3          1 NAD400   0.0000
    33 C2D          1.4600    12.1920    55.4330 C.3          1 NAD400   0.0000
    34 O2D          2.0810    11.3640    56.4250 O.3          1 NAD400   0.0000
    35 C1D          2.2360    12.2340    54.1210 C.3          1 NAD400   0.0000
    36 N1N          3.4230    13.0970    54.2150 N.ar         1 NAD400   1.0000
    37 C2N          3.2010    14.4550    54.3860 C.ar         1 NAD400   0.0000
    38 C3N          4.3230    15.1840    54.6770 C.ar         1 NAD400   0.0000
    39 C7N          4.1880    16.6630    54.9620 C.2          1 NAD400   0.0000
    40 O7N          5.2870    17.1680    55.2220 O.2          1 NAD400   0.0000
    41 N7N          3.0310    17.3770    54.8920 N.am         1 NAD400   0.0000
    42 C4N          5.6320    14.6830    54.7070 C.ar         1 NAD400   0.0000
    43 C5N          5.7160    13.3400    54.4700 C.ar         1 NAD400   0.0000
    44 C6N          4.6910    12.5090    54.1930 C.ar         1 NAD400   0.0000
    45 H5B1        -4.0577    14.8678    55.5375 H            1 NAD400   0.0000
    46 H5B2        -3.8375    13.9751    54.1879 H            1 NAD400   0.0000
    47 H4B         -5.9129    14.6874    53.3480 H            1 NAD400   0.0000
    48 H3B         -5.9465    16.7248    55.0846 H            1 NAD400   0.0000
    49 H5          -8.0180    15.5956    53.5364 H            1 NAD400   0.0000
    50 H2B         -6.7732    15.4379    56.8570 H            1 NAD400   0.0000
    51 H7          -9.1150    15.8804    55.3108 H            1 NAD400   0.0000
    52 H1B         -8.2881    13.9442    54.8551 H            1 NAD400   0.0000
    53 H8A         -6.3604    13.6649    58.1040 H            1 NAD400   0.0000
    54 H6A1       -10.1518     9.0129    59.4049 H            1 NAD400   0.0000
    55 H6A2        -8.8975    10.0329    60.0262 H            1 NAD400   0.0000
    56 H2A        -10.8857    10.3642    55.2126 H            1 NAD400   0.0000
    57 H5D1        -1.8204    13.3507    53.3006 H            1 NAD400   0.0000
    58 H5D2        -1.1012    13.7881    54.6999 H            1 NAD400   0.0000
    59 H4D         -0.3956    11.7148    52.9606 H            1 NAD400   0.0000
    60 H3D         -0.6166    11.8132    55.6083 H            1 NAD400   0.0000
    61 H17          0.9670     9.9878    54.1334 H            1 NAD400   0.0000
    62 H2D          1.3229    13.1172    55.7869 H            1 NAD400   0.0000
    63 H19          2.9472    11.7758    56.7082 H            1 NAD400   0.0000
    64 H1D          2.4885    11.3121    53.8271 H            1 NAD400   0.0000
    65 H2N          2.2944    14.8687    54.3034 H            1 NAD400   0.0000
    66 H7N1         3.0341    18.3555    55.0981 H            1 NAD400   0.0000
    67 H7N2         2.1781    16.9229    54.6345 H            1 NAD400   0.0000
    68 H4N          6.4316    15.2564    54.8856 H            1 NAD400   0.0000
    69 H5N          6.6287    12.9328    54.5055 H            1 NAD400   0.0000
    70 H6N          4.8282    11.5403    53.9864 H            1 NAD400   0.0000
@<TRIPOS>BOND
     1    1    2      ar
     2    1    3      ar
     3    1    4       1
     4    1   23       1
     5    4    5       1
     6    5    6       1
     7    6    7       1
     8    6    8       1
     9    7   12       1
    10    8    9       1
    11    8   10       1
    12   10   11       1
    13   10   12       1
    14   12   13       1
    15   13   14       1
    16   13   22       1
    17   14   15       2
    18   15   16       1
    19   16   17      ar
    20   16   22      ar
    21   17   18       1
    22   17   19      ar
    23   19   20      ar
    24   20   21      ar
    25   21   22      ar
    26   23   24       1
    27   24   25      ar
    28   24   26      ar
    29   24   27       1
    30   27   28       1
    31   28   29       1
    32   29   30       1
    33   29   31       1
    34   30   35       1
    35   31   32       1
    36   31   33       1
    37   33   34       1
    38   33   35       1
    39   35   36       1
    40   36   37      ar
    41   36   44      ar
    42   37   38      ar
    43   38   39       1
    44   38   42      ar
    45   39   40       2
    46   39   41      am
    47   42   43      ar
    48   43   44      ar
    49   44   70       1
    50    5   45       1
    51    5   46       1
    52    6   47       1
    53    8   48       1
    54    9   49       1
    55   10   50       1
    56   11   51       1
    57   12   52       1
    58   14   53       1
    59   18   54       1
    60   18   55       1
    61   20   56       1
    62   43   69       1
    63   28   57       1
    64   28   58       1
    65   29   59       1
    66   31   60       1
    67   32   61       1
    68   33   62       1
    69   34   63       1
    70   35   64       1
    71   37   65       1
    72   41   66       1
    73   41   67       1
    74   42   68       1
@<TRIPOS>SUBSTRUCTURE
     1 NAD400      1 GROUP             4 A     NAD     0 **** NAD A 400
