@<TRIPOS>MOLECULE
1s0x_C3S_1_ligand
   77    80     1     0     0
SMALL
NO_CHARGES


@<TRIPOS>ATOM
     1 C65         29.6650    21.3510    16.2800 C.3          1 C3S1001   0.0000
     2 C63         28.1710    21.7190    16.5080 C.3          1 C3S1001   0.0000
     3 C69         27.5610    20.6000    17.3810 C.3          1 C3S1001   0.0000
     4 C60         28.0790    23.1220    17.1590 C.3          1 C3S1001   0.0000
     5 C57         26.7490    23.9310    17.0200 C.3          1 C3S1001   0.0000
     6 C54         26.5370    24.8850    18.2260 C.3          1 C3S1001   0.0000
     7 C48         25.3390    25.8760    18.1160 C.3          1 C3S1001   0.0000
     8 C50         25.4160    26.6360    16.7750 C.3          1 C3S1001   0.0000
     9 C38         23.9980    25.1090    18.1100 C.3          1 C3S1001   0.0000
    10 C35         23.9030    24.1350    19.3330 C.3          1 C3S1001   0.0000
    11 C29         22.6350    25.8810    18.0950 C.3          1 C3S1001   0.0000
    12 C26         22.0770    26.4260    16.7550 C.3          1 C3S1001   0.0000
    13 C40         22.6630    27.0460    19.1240 C.3          1 C3S1001   0.0000
    14 C30         21.6870    24.7290    18.4960 C.3          1 C3S1001   0.0000
    15 C32         22.3830    23.9710    19.6450 C.3          1 C3S1001   0.0000
    16 C18         20.2720    25.2680    18.8440 C.3          1 C3S1001   0.0000
    17 C15         19.3940    24.1090    19.3730 C.3          1 C3S1001   0.0000
    18 C20         19.6590    25.9140    17.5770 C.3          1 C3S1001   0.0000
    19 C23         20.6320    26.9840    16.9660 C.3          1 C3S1001   0.0000
    20 C22         18.1870    26.4230    17.7820 C.3          1 C3S1001   0.0000
    21 C44         18.2010    27.8410    18.4360 C.3          1 C3S1001   0.0000
    22 C12         17.3840    25.4360    18.6270 C.2          1 C3S1001   0.0000
    23 C9          15.8750    25.6220    18.7060 C.3          1 C3S1001   0.0000
    24 C13         17.9250    24.4270    19.3390 C.2          1 C3S1001   0.0000
    25 C1          17.4590    26.5360    16.4180 C.3          1 C3S1001   0.0000
    26 C4          15.9650    26.9230    16.5760 C.3          1 C3S1001   0.0000
    27 C7          15.1800    25.8560    17.3610 C.3          1 C3S1001   0.0000
    28 O6          13.8770    26.3380    17.7730 O.3          1 C3S1001   0.0000
    29 S1          12.5910    26.1060    16.9860 S.o2         1 C3S1001   0.0000
    30 O3          11.4640    26.6560    17.7440 O.co2        1 C3S1001   0.0000
    31 O2          12.4030    24.7220    16.6170 O.co2        1 C3S1001   0.0000
    32 O4          12.7700    26.9070    15.7490 O.co2        1 C3S1001  -1.0000
    33 H1          30.0991    22.0537    15.7163 H            1 C3S1001   0.0000
    34 H2          30.1329    21.2952    17.1620 H            1 C3S1001   0.0000
    35 H3          29.7235    20.4676    15.8151 H            1 C3S1001   0.0000
    36 H4          27.7010    21.7372    15.6255 H            1 C3S1001   0.0000
    37 H5          26.5961    20.7992    17.5519 H            1 C3S1001   0.0000
    38 H6          27.6413    19.7244    16.9047 H            1 C3S1001   0.0000
    39 H7          28.0507    20.5520    18.2515 H            1 C3S1001   0.0000
    40 H8          28.8057    23.6801    16.7584 H            1 C3S1001   0.0000
    41 H9          28.2503    23.0039    18.1371 H            1 C3S1001   0.0000
    42 H10         25.9823    23.2908    16.9730 H            1 C3S1001   0.0000
    43 H11         26.7836    24.4719    16.1796 H            1 C3S1001   0.0000
    44 H12         27.3709    25.4254    18.3380 H            1 C3S1001   0.0000
    45 H13         26.3933    24.3214    19.0395 H            1 C3S1001   0.0000
    46 H14         25.3595    26.5234    18.8779 H            1 C3S1001   0.0000
    47 H15         24.6464    27.2709    16.7070 H            1 C3S1001   0.0000
    48 H16         26.2745    27.1468    16.7302 H            1 C3S1001   0.0000
    49 H17         25.3769    25.9827    16.0189 H            1 C3S1001   0.0000
    50 H18         24.0056    24.5342    17.2917 H            1 C3S1001   0.0000
    51 H19         24.3786    24.5230    20.1224 H            1 C3S1001   0.0000
    52 H20         24.3067    23.2496    19.1027 H            1 C3S1001   0.0000
    53 H21         22.0518    25.6871    16.0817 H            1 C3S1001   0.0000
    54 H22         22.6702    27.1594    16.4230 H            1 C3S1001   0.0000
    55 H23         21.7879    27.5296    19.1039 H            1 C3S1001   0.0000
    56 H24         22.8193    26.6776    20.0404 H            1 C3S1001   0.0000
    57 H25         23.3998    27.6802    18.8896 H            1 C3S1001   0.0000
    58 H26         21.6025    24.1076    17.7171 H            1 C3S1001   0.0000
    59 H27         22.1551    24.3779    20.5296 H            1 C3S1001   0.0000
    60 H28         22.1215    23.0058    19.6448 H            1 C3S1001   0.0000
    61 H29         20.3553    25.9646    19.5566 H            1 C3S1001   0.0000
    62 H30         19.6569    23.9150    20.3181 H            1 C3S1001   0.0000
    63 H31         19.5588    23.3002    18.8084 H            1 C3S1001   0.0000
    64 H32         19.6011    25.1810    16.8992 H            1 C3S1001   0.0000
    65 H33         20.2698    27.2794    16.0819 H            1 C3S1001   0.0000
    66 H34         20.6778    27.7673    17.5860 H            1 C3S1001   0.0000
    67 H35         17.2614    28.1586    18.5635 H            1 C3S1001   0.0000
    68 H36         18.6604    27.7944    19.3230 H            1 C3S1001   0.0000
    69 H37         18.6902    28.4780    17.8403 H            1 C3S1001   0.0000
    70 H38         15.6900    26.4108    19.2921 H            1 C3S1001   0.0000
    71 H39         15.4824    24.8003    19.1192 H            1 C3S1001   0.0000
    72 H40         17.3095    23.8532    19.8793 H            1 C3S1001   0.0000
    73 H41         17.5146    25.6540    15.9501 H            1 C3S1001   0.0000
    74 H42         17.9154    27.2348    15.8672 H            1 C3S1001   0.0000
    75 H43         15.5581    27.0219    15.6679 H            1 C3S1001   0.0000
    76 H44         15.9057    27.7936    17.0644 H            1 C3S1001   0.0000
    77 H45         15.1037    25.0059    16.8399 H            1 C3S1001   0.0000
@<TRIPOS>BOND
     1    1    2       1
     2    2    3       1
     3    2    4       1
     4    4    5       1
     5    5    6       1
     6    6    7       1
     7    7    8       1
     8    7    9       1
     9    9   10       1
    10    9   11       1
    11   10   15       1
    12   11   12       1
    13   11   13       1
    14   11   14       1
    15   12   19       1
    16   14   15       1
    17   14   16       1
    18   16   17       1
    19   16   18       1
    20   17   24       1
    21   18   19       1
    22   18   20       1
    23   20   21       1
    24   20   22       1
    25   20   25       1
    26   22   23       1
    27   22   24       2
    28   23   27       1
    29   25   26       1
    30   26   27       1
    31   27   28       1
    32   28   29       1
    33   29   30      ar
    34   29   31      ar
    35   29   32      ar
    36    1   33       1
    37    1   34       1
    38    1   35       1
    39    2   36       1
    40    3   37       1
    41    3   38       1
    42    3   39       1
    43    4   40       1
    44    4   41       1
    45    5   42       1
    46    5   43       1
    47    6   44       1
    48    6   45       1
    49    7   46       1
    50    8   47       1
    51    8   48       1
    52    8   49       1
    53    9   50       1
    54   10   51       1
    55   10   52       1
    56   12   53       1
    57   12   54       1
    58   13   55       1
    59   13   56       1
    60   13   57       1
    61   14   58       1
    62   15   59       1
    63   15   60       1
    64   16   61       1
    65   17   62       1
    66   17   63       1
    67   18   64       1
    68   19   65       1
    69   19   66       1
    70   21   67       1
    71   21   68       1
    72   21   69       1
    73   23   70       1
    74   23   71       1
    75   24   72       1
    76   25   73       1
    77   25   74       1
    78   26   75       1
    79   26   76       1
    80   27   77       1
@<TRIPOS>SUBSTRUCTURE
     1 C3S1001     1 GROUP             4 A     C3S     0 **** C3S A1001
