@<TRIPOS>MOLECULE
4gvs_F4M_1_ligand
   97   100     1     0     0
SMALL
NO_CHARGES


@<TRIPOS>ATOM
     1 O96        -12.2580   -27.6820    54.4930 O.2          1 F4M401   0.0000
     2 C5         -12.1100   -26.5170    54.7280 C.2          1 F4M401   0.0000
     3 N2         -12.9650   -26.0700    55.7030 N.am         1 F4M401   0.0000
     4 C6         -12.3160   -25.7550    56.9530 C.2          1 F4M401   0.0000
     5 C7         -13.0210   -24.8930    57.9020 C.2          1 F4M401   0.0000
     6 N4         -12.4830   -24.6500    59.1130 N.2          1 F4M401   0.0000
     7 C8         -11.3080   -25.1350    59.5370 C.2          1 F4M401   0.0000
     8 N6         -10.8730   -24.8300    60.7980 N.pl3        1 F4M401   0.0000
     9 N5         -10.5730   -25.9410    58.7370 N.pl3        1 F4M401   0.0000
    10 C9         -11.0130   -26.2610    57.4750 C.2          1 F4M401   0.0000
    11 O1         -10.2660   -26.9900    56.8520 O.2          1 F4M401   0.0000
    12 N3         -14.2280   -24.3870    57.5290 N.pl3        1 F4M401   0.0000
    13 C2         -14.8970   -24.5840    56.2380 C.3          1 F4M401   0.0000
    14 C1         -15.4080   -23.2640    55.6520 C.3          1 F4M401   0.0000
    15 C3         -14.1490   -25.3450    55.1320 C.3          1 F4M401   0.0000
    16 C4         -15.2650   -26.1770    54.3490 C.3          1 F4M401   0.0000
    17 C31        -15.9660   -25.3710    53.2140 C.3          1 F4M401   0.0000
    18 N1         -14.9140   -27.5180    53.8310 N.pl3        1 F4M401   0.0000
    19 C10        -15.4600   -28.7610    54.0930 C.ar         1 F4M401   0.0000
    20 C11        -14.6940   -29.8930    53.7910 C.ar         1 F4M401   0.0000
    21 C12        -15.1520   -31.2020    53.9980 C.ar         1 F4M401   0.0000
    22 C15        -16.7360   -28.9850    54.6410 C.ar         1 F4M401   0.0000
    23 C14        -17.2160   -30.2980    54.8690 C.ar         1 F4M401   0.0000
    24 C13        -16.4250   -31.4120    54.5370 C.ar         1 F4M401   0.0000
    25 C16        -16.9270   -32.8240    54.7670 C.3          1 F4M401   0.0000
    26 C17        -17.7480   -33.6720    53.6590 C.3          1 F4M401   0.0000
    27 O16        -17.3990   -34.8540    52.8980 O.3          1 F4M401   0.0000
    28 C18        -18.7250   -32.8470    52.8150 C.3          1 F4M401   0.0000
    29 O15        -19.9330   -32.6860    53.5640 O.3          1 F4M401   0.0000
    30 C19        -19.0950   -33.5700    51.5040 C.3          1 F4M401   0.0000
    31 O14        -18.0330   -33.4850    50.5510 O.3          1 F4M401   0.0000
    32 C20        -20.3770   -33.0420    50.8560 C.3          1 F4M401   0.0000
    33 O2         -21.4390   -32.7840    51.7800 O.3          1 F4M401   0.0000
    34 C21        -22.6750   -33.5530    51.6910 C.3          1 F4M401   0.0000
    35 C22        -22.4840   -34.8580    50.9170 C.3          1 F4M401   0.0000
    36 O13        -21.1100   -35.2050    50.6570 O.3          1 F4M401   0.0000
    37 C23        -23.3360   -34.7010    49.6610 C.3          1 F4M401   0.0000
    38 O12        -22.5670   -34.5510    48.4460 O.3          1 F4M401   0.0000
    39 O3         -23.8390   -32.8870    51.1320 O.3          1 F4M401   0.0000
    40 C24        -24.3060   -33.5600    49.9500 C.3          1 F4M401   0.0000
    41 C25        -25.7050   -34.1500    50.1400 C.3          1 F4M401   0.0000
    42 O4         -26.2010   -34.6030    48.8830 O.3          1 F4M401   0.0000
    43 P          -27.4920   -33.9290    48.2020 P.3          1 F4M401   0.0000
    44 O5         -28.7510   -34.1030    49.0030 O.co2        1 F4M401   0.0000
    45 O6         -27.0740   -32.5740    47.6820 O.co2        1 F4M401  -1.0000
    46 O7         -27.7660   -34.8530    46.9140 O.3          1 F4M401   0.0000
    47 C26        -28.3130   -34.2230    45.7570 C.3          1 F4M401   0.0000
    48 C30        -28.3750   -35.2330    44.6490 C.2          1 F4M401   0.0000
    49 O10        -29.1320   -35.0180    43.6750 O.co2        1 F4M401   0.0000
    50 O11        -27.6420   -36.2410    44.7520 O.co2        1 F4M401  -1.0000
    51 C27        -29.6970   -33.6000    46.0400 C.3          1 F4M401   0.0000
    52 C28        -29.6380   -32.1250    46.4740 C.3          1 F4M401   0.0000
    53 C29        -30.6100   -31.8090    47.6100 C.2          1 F4M401   0.0000
    54 O9         -31.7740   -31.4510    47.3270 O.co2        1 F4M401   0.0000
    55 O8         -30.2010   -31.9000    48.8020 O.co2        1 F4M401  -1.0000
    56 H1         -11.4396   -25.9364    54.2661 H            1 F4M401   0.0000
    57 H2          -9.9977   -25.1865    61.1248 H            1 F4M401   0.0000
    58 H3         -11.4304   -24.2506    61.3927 H            1 F4M401   0.0000
    59 H4         -14.7072   -23.8243    58.2026 H            1 F4M401   0.0000
    60 H5         -15.7133   -25.1267    56.4358 H            1 F4M401   0.0000
    61 H6         -15.8561   -23.4397    54.7754 H            1 F4M401   0.0000
    62 H7         -16.0631   -22.8501    56.2841 H            1 F4M401   0.0000
    63 H8         -14.6384   -22.6405    55.5139 H            1 F4M401   0.0000
    64 H9         -13.7937   -24.6608    54.4951 H            1 F4M401   0.0000
    65 H10        -15.9823   -26.3434    55.0256 H            1 F4M401   0.0000
    66 H11        -16.6493   -25.9490    52.7678 H            1 F4M401   0.0000
    67 H12        -16.4136   -24.5663    53.6041 H            1 F4M401   0.0000
    68 H13        -15.2849   -25.0806    52.5419 H            1 F4M401   0.0000
    69 H14        -14.1534   -27.5267    53.1818 H            1 F4M401   0.0000
    70 H15        -13.7786   -29.7622    53.4103 H            1 F4M401   0.0000
    71 H16        -14.5714   -31.9811    53.7615 H            1 F4M401   0.0000
    72 H17        -17.3146   -28.2033    54.8738 H            1 F4M401   0.0000
    73 H18        -18.1227   -30.4334    55.2684 H            1 F4M401   0.0000
    74 H19        -17.5216   -32.7753    55.5696 H            1 F4M401   0.0000
    75 H20        -16.1177   -33.3697    54.9843 H            1 F4M401   0.0000
    76 H21        -18.4156   -34.0935    54.2727 H            1 F4M401   0.0000
    77 H22        -16.7680   -35.4187    53.4300 H            1 F4M401   0.0000
    78 H23        -18.3282   -31.9521    52.6109 H            1 F4M401   0.0000
    79 H24        -20.7075   -32.6123    52.9357 H            1 F4M401   0.0000
    80 H25        -19.2367   -34.5365    51.7179 H            1 F4M401   0.0000
    81 H26        -17.2720   -32.9696    50.9450 H            1 F4M401   0.0000
    82 H27        -20.6956   -33.7200    50.1936 H            1 F4M401   0.0000
    83 H28        -20.1600   -32.1888    50.3816 H            1 F4M401   0.0000
    84 H29        -22.9172   -33.8105    52.6264 H            1 F4M401   0.0000
    85 H30        -22.8835   -35.5944    51.4630 H            1 F4M401   0.0000
    86 H31        -20.7588   -35.7623    51.4094 H            1 F4M401   0.0000
    87 H32        -23.8798   -35.5349    49.5661 H            1 F4M401   0.0000
    88 H33        -23.1881   -34.4537    47.6683 H            1 F4M401   0.0000
    89 H34        -24.3124   -32.9215    49.1804 H            1 F4M401   0.0000
    90 H35        -26.3161   -33.4486    50.5069 H            1 F4M401   0.0000
    91 H36        -25.6593   -34.9190    50.7776 H            1 F4M401   0.0000
    92 H37        -27.6922   -33.4906    45.4774 H            1 F4M401   0.0000
    93 H38        -30.1361   -34.1256    46.7687 H            1 F4M401   0.0000
    94 H39        -30.2466   -33.6616    45.2069 H            1 F4M401   0.0000
    95 H40        -29.8658   -31.5503    45.6880 H            1 F4M401   0.0000
    96 H41        -28.7088   -31.9179    46.7802 H            1 F4M401   0.0000
    97 H42         -9.7026   -26.3069    59.0665 H            1 F4M401   0.0000
@<TRIPOS>BOND
     1    1    2       2
     2    2    3      am
     3    3    4       1
     4    3   15       1
     5    4    5       2
     6    4   10       1
     7    5    6       1
     8    5   12       1
     9    6    7       2
    10    7    8       1
    11    7    9       1
    12    9   10       1
    13   10   11       2
    14   12   13       1
    15   13   14       1
    16   13   15       1
    17   15   16       1
    18   16   17       1
    19   16   18       1
    20   18   19       1
    21   19   20      ar
    22   19   22      ar
    23   20   21      ar
    24   21   24      ar
    25   22   23      ar
    26   23   24      ar
    27   24   25       1
    28   25   26       1
    29   26   27       1
    30   26   28       1
    31   28   29       1
    32   28   30       1
    33   30   31       1
    34   30   32       1
    35   32   33       1
    36   33   34       1
    37   34   35       1
    38   34   39       1
    39   35   36       1
    40   35   37       1
    41   37   38       1
    42   37   40       1
    43   39   40       1
    44   40   41       1
    45   41   42       1
    46   42   43       1
    47   43   44      ar
    48   43   45      ar
    49   43   46       1
    50   46   47       1
    51   47   48       1
    52   47   51       1
    53   48   49      ar
    54   48   50      ar
    55   51   52       1
    56   52   53       1
    57   53   54      ar
    58   53   55      ar
    59    2   56       1
    60   52   95       1
    61    8   57       1
    62    8   58       1
    63   12   59       1
    64   13   60       1
    65   14   61       1
    66   14   62       1
    67   14   63       1
    68   15   64       1
    69   16   65       1
    70   17   66       1
    71   17   67       1
    72   17   68       1
    73   18   69       1
    74   20   70       1
    75   21   71       1
    76   22   72       1
    77   23   73       1
    78   25   74       1
    79   25   75       1
    80   26   76       1
    81   27   77       1
    82   28   78       1
    83   29   79       1
    84   30   80       1
    85   31   81       1
    86   32   82       1
    87   32   83       1
    88   34   84       1
    89   35   85       1
    90   36   86       1
    91   37   87       1
    92   38   88       1
    93   40   89       1
    94   41   90       1
    95   41   91       1
    96    9   97       1
    97   47   92       1
    98   52   96       1
    99   51   93       1
   100   51   94       1
@<TRIPOS>SUBSTRUCTURE
     1 F4M401      1 GROUP             4 B     F4M     0 **** F4M B 401
