@<TRIPOS>MOLECULE
2i4n_5CA_3_ligand
   49    51     1     0     0
SMALL
NO_CHARGES


@<TRIPOS>ATOM
     1 N           18.1930    22.4570   -34.0880 N.4          1 5CA439   1.0000
     2 CA          18.5920    21.7840   -32.8670 C.3          1 5CA439   0.0000
     3 CB          18.4850    20.2970   -33.0960 C.3          1 5CA439   0.0000
     4 SG          18.0990    20.0130   -34.8240 S.3          1 5CA439   0.0000
     5 C           20.0160    22.1080   -32.5990 C.2          1 5CA439   0.0000
     6 O           20.6100    22.7420   -33.4680 O.2          1 5CA439   0.0000
     7 N3S         20.5470    21.6930   -31.4380 N.am         1 5CA439   0.0000
     8 S           22.0170    22.0110   -31.1220 S.o2         1 5CA439   0.0000
     9 O1S         22.3520    23.4300   -31.3910 O.2          1 5CA439   0.0000
    10 O2S         22.2910    21.6620   -29.7020 O.2          1 5CA439   0.0000
    11 O5'         23.0400    21.2380   -32.1240 O.3          1 5CA439   0.0000
    12 C5'         23.0250    19.8270   -32.1000 C.3          1 5CA439   0.0000
    13 C4'         24.4560    19.4510   -31.8630 C.3          1 5CA439   0.0000
    14 O4'         25.2840    20.1910   -32.7480 O.3          1 5CA439   0.0000
    15 C3'         24.9350    19.8630   -30.4840 C.3          1 5CA439   0.0000
    16 O3'         24.5260    18.9660   -29.4570 O.3          1 5CA439   0.0000
    17 C2'         26.4320    19.8940   -30.6840 C.3          1 5CA439   0.0000
    18 O2'         26.9960    18.6010   -30.4740 O.3          1 5CA439   0.0000
    19 C1'         26.5880    20.2600   -32.1510 C.3          1 5CA439   0.0000
    20 N9          27.1740    21.6160   -32.3200 N.pl3        1 5CA439   0.0000
    21 C8          26.5800    22.8080   -32.0940 C.2          1 5CA439   0.0000
    22 N7          27.4480    23.8190   -32.3930 N.2          1 5CA439   0.0000
    23 C5          28.5900    23.2400   -32.7850 C.ar         1 5CA439   0.0000
    24 C6          29.8810    23.7630   -33.2350 C.ar         1 5CA439   0.0000
    25 N6          30.0870    25.0860   -33.2800 N.pl3        1 5CA439   0.0000
    26 N1          30.8420    22.8990   -33.6090 N.ar         1 5CA439   0.0000
    27 C2          30.6070    21.5760   -33.5310 C.ar         1 5CA439   0.0000
    28 N3          29.4290    21.0510   -33.1210 N.ar         1 5CA439   0.0000
    29 C4          28.4180    21.8650   -32.7440 C.ar         1 5CA439   0.0000
    30 H1          17.2082    22.6295   -34.0670 H            1 5CA439   0.0000
    31 H2          18.6820    23.3259   -34.1648 H            1 5CA439   0.0000
    32 HA          18.0142    22.0670   -32.1015 H            1 5CA439   0.0000
    33 HB1         17.7590    19.9187   -32.5217 H            1 5CA439   0.0000
    34 HB2         19.3537    19.8573   -32.8678 H            1 5CA439   0.0000
    35 HG          18.8233    19.4644   -35.2415 H            1 5CA439   0.0000
    36 H3S         19.9904    21.1809   -30.7838 H            1 5CA439   0.0000
    37 H5'1        22.7013    19.4604   -32.9723 H            1 5CA439   0.0000
    38 H5'2        22.4423    19.4906   -31.3602 H            1 5CA439   0.0000
    39 H4'         24.5871    18.4691   -32.0000 H            1 5CA439   0.0000
    40 H3'         24.6054    20.7839   -30.2758 H            1 5CA439   0.0000
    41 H12         24.4170    19.4686   -28.5994 H            1 5CA439   0.0000
    42 H2'         26.8619    20.5766   -30.0931 H            1 5CA439   0.0000
    43 H14         27.9857    18.6428   -30.6109 H            1 5CA439   0.0000
    44 H1'         27.1845    19.5898   -32.5925 H            1 5CA439   0.0000
    45 H16         25.6461    22.9314   -31.7585 H            1 5CA439   0.0000
    46 H17         30.9685    25.4446   -33.5872 H            1 5CA439   0.0000
    47 H18         29.3593    25.7149   -33.0064 H            1 5CA439   0.0000
    48 H19         31.3412    20.9482   -33.7895 H            1 5CA439   0.0000
    49 H20         18.4136    21.8797   -34.8742 H            1 5CA439   0.0000
@<TRIPOS>BOND
     1    1    2       1
     2    2    3       1
     3    2    5       1
     4    3    4       1
     5    5    6       2
     6    5    7      am
     7    7    8       1
     8    8    9       2
     9    8   10       2
    10    8   11       1
    11   11   12       1
    12   12   13       1
    13   13   14       1
    14   13   15       1
    15   14   19       1
    16   15   16       1
    17   15   17       1
    18   17   18       1
    19   17   19       1
    20   19   20       1
    21   20   21       1
    22   20   29       1
    23   21   22       2
    24   22   23       1
    25   23   24      ar
    26   23   29      ar
    27   24   25       1
    28   24   26      ar
    29   26   27      ar
    30   27   28      ar
    31   28   29      ar
    32    1   30       1
    33    1   31       1
    34    2   32       1
    35    3   33       1
    36    3   34       1
    37    4   35       1
    38    7   36       1
    39   12   37       1
    40   12   38       1
    41   13   39       1
    42   15   40       1
    43   16   41       1
    44   17   42       1
    45   18   43       1
    46   19   44       1
    47   21   45       1
    48   25   46       1
    49   25   47       1
    50   27   48       1
    51    1   49       1
@<TRIPOS>SUBSTRUCTURE
     1 5CA439      1 GROUP             4 C     5CA     0 **** 5CA C 439
