@<TRIPOS>MOLECULE
4c3p_ACP_1_ligand
   45    47     1     0     0
SMALL
NO_CHARGES


@<TRIPOS>ATOM
     1 PG           3.0590    16.1930   -26.9000 P.3          1 ACP1389   0.0000
     2 O1G          2.4330    15.5090   -28.2340 O.co2        1 ACP1389   0.0000
     3 O2G          4.5540    15.6300   -26.6110 O.co2        1 ACP1389  -1.0000
     4 O3G          2.2230    15.8960   -25.7090 O.co2        1 ACP1389  -1.0000
     5 PB           4.5900    18.6660   -26.5760 P.3          1 ACP1389   0.0000
     6 O1B          4.6020    18.8020   -25.1040 O.co2        1 ACP1389   0.0000
     7 O2B          5.7780    17.6700   -27.0180 O.co2        1 ACP1389  -1.0000
     8 C3B          3.0040    17.9920   -27.1200 C.3          1 ACP1389   0.0000
     9 PA           5.0880    20.2170   -28.8350 P.3          1 ACP1389   0.0000
    10 O1A          6.5460    20.3330   -29.1500 O.co2        1 ACP1389   0.0000
    11 O2A          4.3030    19.1720   -29.5790 O.co2        1 ACP1389  -1.0000
    12 O3A          4.8570    20.1010   -27.2490 O.3          1 ACP1389   0.0000
    13 O5'          4.4090    21.6550   -29.0960 O.3          1 ACP1389   0.0000
    14 C5'          3.0070    21.8680   -28.9910 C.3          1 ACP1389   0.0000
    15 C4'          2.5190    22.4580   -30.2960 C.3          1 ACP1389   0.0000
    16 O4'          3.2740    23.6170   -30.6090 O.3          1 ACP1389   0.0000
    17 C3'          2.7230    21.5020   -31.4530 C.3          1 ACP1389   0.0000
    18 O3'          1.5420    20.7240   -31.6310 O.3          1 ACP1389   0.0000
    19 C2'          3.0390    22.3770   -32.6450 C.3          1 ACP1389   0.0000
    20 O2'          1.8780    22.7630   -33.4110 O.3          1 ACP1389   0.0000
    21 C1'          3.6300    23.6100   -32.0020 C.3          1 ACP1389   0.0000
    22 N9           5.0950    23.5760   -32.1840 N.pl3        1 ACP1389   0.0000
    23 C8           6.0020    22.9680   -31.4160 C.2          1 ACP1389   0.0000
    24 N7           7.2510    23.1760   -31.8890 N.2          1 ACP1389   0.0000
    25 C5           7.1440    23.9260   -32.9790 C.ar         1 ACP1389   0.0000
    26 C6           8.0620    24.5080   -33.9490 C.ar         1 ACP1389   0.0000
    27 N6           9.3770    24.2960   -33.8280 N.pl3        1 ACP1389   0.0000
    28 N1           7.5570    25.2370   -34.9570 N.ar         1 ACP1389   0.0000
    29 C2           6.2460    25.4490   -35.0780 C.ar         1 ACP1389   0.0000
    30 N3           5.3390    24.9600   -34.2160 N.ar         1 ACP1389   0.0000
    31 C4           5.7270    24.1980   -33.1700 C.ar         1 ACP1389   0.0000
    32 H3B1         2.2637    18.3791   -26.5704 H            1 ACP1389   0.0000
    33 H3B2         2.8538    18.2121   -28.0838 H            1 ACP1389   0.0000
    34 H5'1         2.8161    22.5012   -28.2409 H            1 ACP1389   0.0000
    35 H5'2         2.5445    20.9983   -28.8189 H            1 ACP1389   0.0000
    36 H4'          1.5506    22.6951   -30.2193 H            1 ACP1389   0.0000
    37 H3'          3.4981    20.9001   -31.2610 H            1 ACP1389   0.0000
    38 H7           1.6718    20.0909   -32.3941 H            1 ACP1389   0.0000
    39 H2'          3.7141    21.9332   -33.2344 H            1 ACP1389   0.0000
    40 H9           2.1613    23.3372   -34.1792 H            1 ACP1389   0.0000
    41 H1'          3.2587    24.4263   -32.4444 H            1 ACP1389   0.0000
    42 H11          5.7864    22.4309   -30.6005 H            1 ACP1389   0.0000
    43 H12         10.0107    24.6936   -34.4916 H            1 ACP1389   0.0000
    44 H13          9.7265    23.7399   -33.0739 H            1 ACP1389   0.0000
    45 H14          5.9222    25.9988   -35.8480 H            1 ACP1389   0.0000
@<TRIPOS>BOND
     1    1    2      ar
     2    1    3      ar
     3    1    4      ar
     4    1    8       1
     5    5    6      ar
     6    5    7      ar
     7    5    8       1
     8    5   12       1
     9    9   10      ar
    10    9   11      ar
    11    9   12       1
    12    9   13       1
    13   13   14       1
    14   14   15       1
    15   15   16       1
    16   15   17       1
    17   16   21       1
    18   17   18       1
    19   17   19       1
    20   19   20       1
    21   19   21       1
    22   21   22       1
    23   22   23       1
    24   22   31       1
    25   23   24       2
    26   24   25       1
    27   25   26      ar
    28   25   31      ar
    29   26   27       1
    30   26   28      ar
    31   28   29      ar
    32   29   30      ar
    33   30   31      ar
    34   29   45       1
    35   27   44       1
    36   27   43       1
    37    8   32       1
    38    8   33       1
    39   23   42       1
    40   14   34       1
    41   14   35       1
    42   15   36       1
    43   17   37       1
    44   18   38       1
    45   19   39       1
    46   20   40       1
    47   21   41       1
@<TRIPOS>SUBSTRUCTURE
     1 ACP1389     1 GROUP             4 A     ACP     0 **** ACP A1389
