@<TRIPOS>MOLECULE
1m0w_ANP_1_ligand
   44    46     1     0     0
SMALL
NO_CHARGES


@<TRIPOS>ATOM
     1 PG          -6.8650    -4.1220     2.6030 P.3          1 ANP504   0.0000
     2 O1G         -5.5580    -4.3020     3.3360 O.co2        1 ANP504   0.0000
     3 O2G         -7.0460    -2.8000     1.9400 O.co2        1 ANP504  -1.0000
     4 O3G         -7.1200    -5.2500     1.6340 O.co2        1 ANP504  -1.0000
     5 PB          -8.5890    -3.3120     4.9870 P.3          1 ANP504   0.0000
     6 O1B         -7.3540    -2.7860     5.5700 O.co2        1 ANP504   0.0000
     7 O2B         -9.3960    -3.9770     6.0370 O.co2        1 ANP504  -1.0000
     8 N3B         -8.1020    -4.2500     3.7670 N.3          1 ANP504   0.0000
     9 PA          -9.3170    -0.3460     4.4180 P.3          1 ANP504   0.0000
    10 O1A         -8.9330     0.2890     5.7390 O.co2        1 ANP504   0.0000
    11 O2A         -8.3890    -0.0320     3.3020 O.co2        1 ANP504  -1.0000
    12 O3A         -9.4580    -1.9380     4.6170 O.3          1 ANP504   0.0000
    13 O5'        -10.8290     0.0240     3.9930 O.3          1 ANP504   0.0000
    14 C5'        -11.2010    -0.5620     2.7290 C.3          1 ANP504   0.0000
    15 C4'        -11.8450     0.5390     1.8580 C.3          1 ANP504   0.0000
    16 O4'        -12.8120     1.1610     2.6810 O.3          1 ANP504   0.0000
    17 C3'        -11.0130     1.7220     1.5240 C.3          1 ANP504   0.0000
    18 O3'        -10.1360     1.5790     0.4380 O.3          1 ANP504   0.0000
    19 C2'        -12.0850     2.8170     1.4210 C.3          1 ANP504   0.0000
    20 O2'        -12.8300     2.8250     0.2070 O.3          1 ANP504   0.0000
    21 C1'        -13.0300     2.5620     2.5280 C.3          1 ANP504   0.0000
    22 N9         -12.7150     3.3540     3.7720 N.pl3        1 ANP504   0.0000
    23 C8         -11.9250     2.9540     4.8020 C.2          1 ANP504   0.0000
    24 N7         -11.8510     3.8880     5.7550 N.2          1 ANP504   0.0000
    25 C5         -12.6140     4.8990     5.3070 C.ar         1 ANP504   0.0000
    26 C6         -12.9020     6.1670     5.9260 C.ar         1 ANP504   0.0000
    27 N6         -12.3680     6.4680     7.1430 N.pl3        1 ANP504   0.0000
    28 N1         -13.7270     7.0670     5.2670 N.ar         1 ANP504   0.0000
    29 C2         -14.2290     6.6910     4.0380 C.ar         1 ANP504   0.0000
    30 N3         -13.9670     5.5000     3.4500 N.ar         1 ANP504   0.0000
    31 C4         -13.1600     4.5740     4.0500 C.ar         1 ANP504   0.0000
    32 H3B         -8.9276    -4.3451     3.2108 H            1 ANP504   0.0000
    33 H5'1       -11.8567    -1.3020     2.8788 H            1 ANP504   0.0000
    34 H5'2       -10.3888    -0.9239     2.2714 H            1 ANP504   0.0000
    35 H4'        -12.2653     0.1505     1.0380 H            1 ANP504   0.0000
    36 H3'        -10.4561     1.9283     2.3285 H            1 ANP504   0.0000
    37 H6         -10.0059     2.4663    -0.0045 H            1 ANP504   0.0000
    38 H2'        -11.6571     3.7113     1.5516 H            1 ANP504   0.0000
    39 H8         -12.3714     3.4103    -0.4617 H            1 ANP504   0.0000
    40 H1'        -13.9688     2.7379     2.2318 H            1 ANP504   0.0000
    41 H10        -11.4573     2.0710     4.8422 H            1 ANP504   0.0000
    42 H11        -12.5680     7.3485     7.5728 H            1 ANP504   0.0000
    43 H12        -11.7761     5.8084     7.6063 H            1 ANP504   0.0000
    44 H13        -14.8206     7.3355     3.5536 H            1 ANP504   0.0000
@<TRIPOS>BOND
     1    1    2      ar
     2    1    3      ar
     3    1    4      ar
     4    1    8       1
     5    5    6      ar
     6    5    7      ar
     7    5    8       1
     8    5   12       1
     9    9   10      ar
    10    9   11      ar
    11    9   12       1
    12    9   13       1
    13   13   14       1
    14   14   15       1
    15   15   16       1
    16   15   17       1
    17   16   21       1
    18   17   18       1
    19   17   19       1
    20   19   20       1
    21   19   21       1
    22   21   22       1
    23   22   23       1
    24   22   31       1
    25   23   24       2
    26   24   25       1
    27   25   26      ar
    28   25   31      ar
    29   26   27       1
    30   26   28      ar
    31   28   29      ar
    32   29   30      ar
    33   30   31      ar
    34   29   44       1
    35   27   43       1
    36   27   42       1
    37    8   32       1
    38   23   41       1
    39   14   33       1
    40   14   34       1
    41   15   35       1
    42   17   36       1
    43   18   37       1
    44   19   38       1
    45   20   39       1
    46   21   40       1
@<TRIPOS>SUBSTRUCTURE
     1 ANP504      1 GROUP             4 A     ANP     0 **** ANP A 504
