@<TRIPOS>MOLECULE
4pao_GSP_1_ligand
   45    47     1     0     0
SMALL
NO_CHARGES


@<TRIPOS>ATOM
     1 PG         115.7080   105.0730    12.1750 P.3          1 GSP401   0.0000
     2 O3B        116.0530   105.9460    10.8540 O.3          1 GSP401   0.0000
     3 S1G        117.2550   104.6200    12.8780 S.2          1 GSP401   0.0000
     4 O2G        114.9130   105.9610    13.1460 O.co2        1 GSP401  -1.0000
     5 O3G        114.8450   103.8700    11.7750 O.co2        1 GSP401  -1.0000
     6 PB         114.9810   106.7020     9.9140 P.3          1 GSP401   0.0000
     7 O1B        114.3870   105.7500     8.9540 O.co2        1 GSP401   0.0000
     8 O2B        113.9500   107.4550    10.6520 O.co2        1 GSP401  -1.0000
     9 PA         116.0370   109.2840     9.3050 P.3          1 GSP401   0.0000
    10 O1A        114.7770   109.9460     8.8760 O.co2        1 GSP401   0.0000
    11 O2A        116.3870   109.6150    10.7120 O.co2        1 GSP401  -1.0000
    12 O3A        115.9510   107.6930     9.0940 O.3          1 GSP401   0.0000
    13 O5'        117.1940   109.6420     8.2490 O.3          1 GSP401   0.0000
    14 C5'        118.5510   109.3980     8.5880 C.3          1 GSP401   0.0000
    15 C4'        119.4180   110.5510     8.1150 C.3          1 GSP401   0.0000
    16 O4'        119.3920   110.6090     6.7000 O.3          1 GSP401   0.0000
    17 C3'        118.8780   111.8810     8.6080 C.3          1 GSP401   0.0000
    18 O3'        119.9960   112.6730     8.9140 O.3          1 GSP401   0.0000
    19 C2'        118.1840   112.4920     7.4130 C.3          1 GSP401   0.0000
    20 O2'        118.2990   113.8970     7.3940 O.3          1 GSP401   0.0000
    21 C1'        118.9480   111.8860     6.2550 C.3          1 GSP401   0.0000
    22 N9         118.1050   111.6720     5.0690 N.pl3        1 GSP401   0.0000
    23 C8         116.8970   111.0150     4.9940 C.2          1 GSP401   0.0000
    24 N7         116.5050   111.0120     3.6980 N.2          1 GSP401   0.0000
    25 C5         117.4370   111.6500     2.9560 C.2          1 GSP401   0.0000
    26 C6         117.5310   111.9300     1.5950 C.2          1 GSP401   0.0000
    27 O6         116.6500   111.5790     0.8030 O.2          1 GSP401   0.0000
    28 N1         118.6400   112.6030     1.1350 N.2          1 GSP401   1.0000
    29 C2         119.6350   113.0040     2.0060 C.2          1 GSP401   0.0000
    30 N2         120.6950   113.6620     1.5440 N.pl3        1 GSP401   0.0000
    31 N3         119.5420   112.7150     3.3500 N.pl3        1 GSP401   0.0000
    32 C4         118.4550   112.0530     3.8090 C.2          1 GSP401   0.0000
    33 H5'1       118.8554   108.5526     8.1491 H            1 GSP401   0.0000
    34 H5'2       118.6334   109.3067     9.5804 H            1 GSP401   0.0000
    35 H4'        120.3573   110.4248     8.4341 H            1 GSP401   0.0000
    36 H3'        118.2635   111.7744     9.3897 H            1 GSP401   0.0000
    37 H5         119.9830   113.4996     8.3514 H            1 GSP401   0.0000
    38 H2'        117.2231   112.2164     7.3843 H            1 GSP401   0.0000
    39 H7         117.5297   114.3011     7.8888 H            1 GSP401   0.0000
    40 H1'        119.7320   112.4610     6.0211 H            1 GSP401   0.0000
    41 H9         116.3978   110.6116     5.7609 H            1 GSP401   0.0000
    42 H10        118.7267   112.8041     0.1593 H            1 GSP401   0.0000
    43 H11        121.4160   113.9530     2.1729 H            1 GSP401   0.0000
    44 H12        120.7707   113.8656     0.5679 H            1 GSP401   0.0000
    45 H13        120.2691   112.9912     3.9785 H            1 GSP401   0.0000
@<TRIPOS>BOND
     1    1    2       1
     2    1    3       2
     3    1    4      ar
     4    1    5      ar
     5    2    6       1
     6    6    7      ar
     7    6    8      ar
     8    6   12       1
     9    9   10      ar
    10    9   11      ar
    11    9   12       1
    12    9   13       1
    13   13   14       1
    14   14   15       1
    15   15   16       1
    16   15   17       1
    17   16   21       1
    18   17   18       1
    19   17   19       1
    20   19   20       1
    21   19   21       1
    22   21   22       1
    23   22   23       1
    24   22   32       1
    25   23   24       2
    26   24   25       1
    27   25   26       1
    28   25   32       2
    29   26   27       2
    30   26   28       1
    31   28   29       2
    32   29   30       1
    33   29   31       1
    34   31   32       1
    35   30   44       1
    36   30   43       1
    37   28   42       1
    38   23   41       1
    39   14   33       1
    40   14   34       1
    41   15   35       1
    42   17   36       1
    43   18   37       1
    44   19   38       1
    45   20   39       1
    46   21   40       1
    47   31   45       1
@<TRIPOS>SUBSTRUCTURE
     1 GSP401      1 GROUP             4 A     GSP     0 **** GSP A 401
