@<TRIPOS>MOLECULE
3cos_NAD_3_ligand
   70    74     1     0     0
SMALL
NO_CHARGES


@<TRIPOS>ATOM
     1 PA          25.8030    89.9860    77.2480 P.3          1 NAD400   0.0000
     2 O1A         26.9170    90.9680    77.2120 O.co2        1 NAD400   0.0000
     3 O2A         25.6770    88.9180    76.2550 O.co2        1 NAD400  -1.0000
     4 O5B         25.8290    89.3240    78.6680 O.3          1 NAD400   0.0000
     5 C5B         24.9740    88.2500    79.0250 C.3          1 NAD400   0.0000
     6 C4B         25.6710    87.4490    80.1160 C.3          1 NAD400   0.0000
     7 O4B         24.6890    86.4870    80.5430 O.3          1 NAD400   0.0000
     8 C3B         26.9030    86.6780    79.5800 C.3          1 NAD400   0.0000
     9 O3B         28.0230    86.9480    80.4630 O.3          1 NAD400   0.0000
    10 C2B         26.4230    85.2310    79.6490 C.3          1 NAD400   0.0000
    11 O2B         27.4900    84.3070    79.9360 O.3          1 NAD400   0.0000
    12 C1B         25.4140    85.3020    80.8150 C.3          1 NAD400   0.0000
    13 N9A         24.5420    84.1010    80.8680 N.pl3        1 NAD400   0.0000
    14 C8A         23.9820    83.4840    79.8200 C.2          1 NAD400   0.0000
    15 N7A         23.2650    82.4420    80.2650 N.2          1 NAD400   0.0000
    16 C5A         23.3850    82.3770    81.5980 C.ar         1 NAD400   0.0000
    17 C6A         22.8890    81.5130    82.5730 C.ar         1 NAD400   0.0000
    18 N6A         22.1130    80.4630    82.2470 N.pl3        1 NAD400   0.0000
    19 N1A         23.1990    81.7540    83.8550 N.ar         1 NAD400   0.0000
    20 C2A         23.9750    82.7910    84.1990 C.ar         1 NAD400   0.0000
    21 N3A         24.4680    83.6250    83.2960 N.ar         1 NAD400   0.0000
    22 C4A         24.1990    83.4380    81.9860 C.ar         1 NAD400   0.0000
    23 O3          24.3520    90.7650    77.2190 O.3          1 NAD400   0.0000
    24 PN          24.0140    92.2780    77.6460 P.3          1 NAD400   0.0000
    25 O1N         24.2000    93.1630    76.4830 O.co2        1 NAD400   0.0000
    26 O2N         24.6660    92.5690    78.9440 O.co2        1 NAD400  -1.0000
    27 O5D         22.4110    92.1660    77.8460 O.3          1 NAD400   0.0000
    28 C5D         21.8310    91.4220    78.9380 C.3          1 NAD400   0.0000
    29 C4D         20.3480    91.1200    78.6900 C.3          1 NAD400   0.0000
    30 O4D         19.5450    92.3330    78.9460 O.3          1 NAD400   0.0000
    31 C3D         20.0440    90.6830    77.2540 C.3          1 NAD400   0.0000
    32 O3D         18.9960    89.7330    77.3150 O.3          1 NAD400   0.0000
    33 C2D         19.5820    92.0130    76.6400 C.3          1 NAD400   0.0000
    34 O2D         18.7510    91.8570    75.5110 O.3          1 NAD400   0.0000
    35 C1D         18.7410    92.5840    77.7620 C.3          1 NAD400   0.0000
    36 N1N         18.5880    94.0430    77.8790 N.ar         1 NAD400   1.0000
    37 C2N         17.3980    94.5430    78.3890 C.ar         1 NAD400   0.0000
    38 C3N         17.2440    95.9190    78.5510 C.ar         1 NAD400   0.0000
    39 C7N         15.9430    96.4500    79.1200 C.2          1 NAD400   0.0000
    40 O7N         15.6600    97.7620    79.0670 O.2          1 NAD400   0.0000
    41 N7N         15.1470    95.5420    79.7010 N.am         1 NAD400   0.0000
    42 C4N         18.2800    96.7900    78.2180 C.ar         1 NAD400   0.0000
    43 C5N         19.4900    96.2870    77.7320 C.ar         1 NAD400   0.0000
    44 C6N         19.6500    94.9280    77.5440 C.ar         1 NAD400   0.0000
    45 H5B1        24.8069    87.6683    78.2290 H            1 NAD400   0.0000
    46 H5B2        24.1040    88.6058    79.3664 H            1 NAD400   0.0000
    47 H4B         25.9327    88.0443    80.8757 H            1 NAD400   0.0000
    48 H3B         27.1133    86.9437    78.6392 H            1 NAD400   0.0000
    49 H5          28.0437    86.2653    81.1934 H            1 NAD400   0.0000
    50 H2B         25.9590    84.9761    78.8006 H            1 NAD400   0.0000
    51 H7          27.5736    84.1914    80.9258 H            1 NAD400   0.0000
    52 H1B         25.9058    85.3994    81.6803 H            1 NAD400   0.0000
    53 H8A         24.0820    83.7556    78.8628 H            1 NAD400   0.0000
    54 H6A1        21.7676    79.8554    82.9622 H            1 NAD400   0.0000
    55 H6A2        21.8818    80.2903    81.2895 H            1 NAD400   0.0000
    56 H2A         24.1878    82.9393    85.1648 H            1 NAD400   0.0000
    57 H5D1        21.9171    91.9580    79.7778 H            1 NAD400   0.0000
    58 H5D2        22.3252    90.5588    79.0413 H            1 NAD400   0.0000
    59 H4D         20.0547    90.3986    79.3174 H            1 NAD400   0.0000
    60 H3D         20.8536    90.3189    76.7937 H            1 NAD400   0.0000
    61 H17         19.2870    88.9505    77.8655 H            1 NAD400   0.0000
    62 H2D         20.3610    92.6058    76.4354 H            1 NAD400   0.0000
    63 H19         18.8768    92.6343    74.8946 H            1 NAD400   0.0000
    64 H1D         17.8561    92.1220    77.8215 H            1 NAD400   0.0000
    65 H2N         16.6562    93.9205    78.6385 H            1 NAD400   0.0000
    66 H7N1        14.2732    95.8237    80.0973 H            1 NAD400   0.0000
    67 H7N2        15.4268    94.5827    79.7383 H            1 NAD400   0.0000
    68 H4N         18.1573    97.7764    78.3270 H            1 NAD400   0.0000
    69 H5N         20.2412    96.9121    77.5200 H            1 NAD400   0.0000
    70 H6N         20.5070    94.5686    77.1747 H            1 NAD400   0.0000
@<TRIPOS>BOND
     1    1    2      ar
     2    1    3      ar
     3    1    4       1
     4    1   23       1
     5    4    5       1
     6    5    6       1
     7    6    7       1
     8    6    8       1
     9    7   12       1
    10    8    9       1
    11    8   10       1
    12   10   11       1
    13   10   12       1
    14   12   13       1
    15   13   14       1
    16   13   22       1
    17   14   15       2
    18   15   16       1
    19   16   17      ar
    20   16   22      ar
    21   17   18       1
    22   17   19      ar
    23   19   20      ar
    24   20   21      ar
    25   21   22      ar
    26   23   24       1
    27   24   25      ar
    28   24   26      ar
    29   24   27       1
    30   27   28       1
    31   28   29       1
    32   29   30       1
    33   29   31       1
    34   30   35       1
    35   31   32       1
    36   31   33       1
    37   33   34       1
    38   33   35       1
    39   35   36       1
    40   36   37      ar
    41   36   44      ar
    42   37   38      ar
    43   38   39       1
    44   38   42      ar
    45   39   40       2
    46   39   41      am
    47   42   43      ar
    48   43   44      ar
    49   44   70       1
    50    5   45       1
    51    5   46       1
    52    6   47       1
    53    8   48       1
    54    9   49       1
    55   10   50       1
    56   11   51       1
    57   12   52       1
    58   14   53       1
    59   18   54       1
    60   18   55       1
    61   20   56       1
    62   43   69       1
    63   28   57       1
    64   28   58       1
    65   29   59       1
    66   31   60       1
    67   32   61       1
    68   33   62       1
    69   34   63       1
    70   35   64       1
    71   37   65       1
    72   41   66       1
    73   41   67       1
    74   42   68       1
@<TRIPOS>SUBSTRUCTURE
     1 NAD400      1 GROUP             4 C     NAD     0 **** NAD C 400
