@<TRIPOS>MOLECULE
2nmt_NHM_1_ligand
  124   126     1     0     0
SMALL
NO_CHARGES


@<TRIPOS>ATOM
     1 N6A         19.9650    25.0770    76.0080 N.pl3        1 NHM500   0.0000
     2 C6A         19.0900    24.2500    76.7550 C.ar         1 NHM500   0.0000
     3 N1A         19.4190    23.9720    78.0000 N.ar         1 NHM500   0.0000
     4 C2A         18.6240    23.2010    78.7310 C.ar         1 NHM500   0.0000
     5 N3A         17.4950    22.6280    78.3880 N.ar         1 NHM500   0.0000
     6 C4A         17.0370    22.8650    77.0320 C.ar         1 NHM500   0.0000
     7 C5A         17.8600    23.7040    76.1770 C.ar         1 NHM500   0.0000
     8 N9A         15.9500    22.4590    76.3130 N.pl3        1 NHM500   0.0000
     9 N7A         17.3200    23.8530    74.9220 N.2          1 NHM500   0.0000
    10 C8A         16.1980    23.0800    75.1180 C.2          1 NHM500   0.0000
    11 CEM         24.9940    17.3130    88.3400 C.3          1 NHM500   0.0000
    12 CAM         23.3920    18.6480    83.9690 C.3          1 NHM500   0.0000
    13 CBM         24.4440    18.0660    84.9100 C.3          1 NHM500   0.0000
    14 CCM         23.8680    17.2320    86.0380 C.3          1 NHM500   0.0000
    15 CDM         24.9470    16.6750    86.9590 C.3          1 NHM500   0.0000
    16 C9M         22.9190    20.0760    84.3370 C.3          1 NHM500   0.0000
    17 C8M         21.9700    20.6750    83.3160 C.3          1 NHM500   0.0000
    18 C7M         22.5400    20.5970    81.8960 C.3          1 NHM500   0.0000
    19 C6M         21.5070    20.8360    80.7810 C.3          1 NHM500   0.0000
    20 C2M         24.2400    24.2110    78.6770 C.3          1 NHM500   0.0000
    21 C3M         22.8270    23.7170    78.4390 C.3          1 NHM500   0.0000
    22 C4M         22.6380    22.2950    78.9880 C.3          1 NHM500   0.0000
    23 C5M         21.6360    22.2250    80.1510 C.3          1 NHM500   0.0000
    24 C1M         24.8890    24.6840    77.4270 C.2          1 NHM500   0.0000
    25 O1M         25.3770    23.8780    76.6830 O.2          1 NHM500   0.0000
    26 CP          24.9310    26.1500    77.0640 C.3          1 NHM500   0.0000
    27 P3X         10.9330    21.0200    78.5840 P.3          1 NHM500   0.0000
    28 O7A          9.7270    20.0630    78.0010 O.co2        1 NHM500   0.0000
    29 O8A         10.5750    22.5950    78.3700 O.co2        1 NHM500  -1.0000
    30 O9A         11.1670    20.7770    80.1320 O.co2        1 NHM500  -1.0000
    31 O3X         12.2530    20.6250    77.8260 O.3          1 NHM500   0.0000
    32 S1          23.5210    26.7430    76.0820 S.3          1 NHM500   0.0000
    33 N4          22.9640    24.9890    72.5820 N.am         1 NHM500   0.0000
    34 C5          22.2100    25.3740    71.5940 C.2          1 NHM500   0.0000
    35 O5          21.1830    26.0030    71.7460 O.2          1 NHM500   0.0000
    36 C6          22.7120    24.9860    70.1810 C.3          1 NHM500   0.0000
    37 C7          21.6260    24.9420    69.0610 C.3          1 NHM500   0.0000
    38 N8          20.4280    24.3520    69.5700 N.am         1 NHM500   0.0000
    39 C9          20.2590    23.0660    69.6790 C.2          1 NHM500   0.0000
    40 O9          21.0930    22.2010    69.3520 O.2          1 NHM500   0.0000
    41 C13         19.5360    23.2480    72.7310 C.3          1 NHM500   0.0000
    42 C11         19.0360    22.1410    71.7730 C.3          1 NHM500   0.0000
    43 C14         19.9900    20.9220    71.8900 C.3          1 NHM500   0.0000
    44 C12         17.6380    21.7230    72.2140 C.3          1 NHM500   0.0000
    45 P1A         14.3620    18.9490    72.2990 P.3          1 NHM500   0.0000
    46 O2A         12.9870    18.3880    71.6570 O.co2        1 NHM500   0.0000
    47 O1A         15.6090    17.9630    71.9580 O.co2        1 NHM500  -1.0000
    48 O3A         14.5970    20.4250    71.7260 O.3          1 NHM500   0.0000
    49 O5X         14.1620    19.0540    73.8600 O.3          1 NHM500   0.0000
    50 C4X         13.4100    19.9630    75.8490 C.3          1 NHM500   0.0000
    51 O4X         14.7760    20.2470    76.2760 O.3          1 NHM500   0.0000
    52 C1X         14.8350    21.6180    76.7520 C.3          1 NHM500   0.0000
    53 C2X         13.4400    22.2440    76.4810 C.3          1 NHM500   0.0000
    54 O2X         13.1270    23.2410    77.4560 O.3          1 NHM500   0.0000
    55 C3X         12.5480    21.0360    76.5170 C.3          1 NHM500   0.0000
    56 C5X         13.2800    19.9910    74.3610 C.3          1 NHM500   0.0000
    57 P2A         15.7320    20.7000    70.6780 P.3          1 NHM500   0.0000
    58 O4A         15.5100    22.1570    70.0960 O.co2        1 NHM500   0.0000
    59 O5A         15.6960    19.6200    69.5180 O.co2        1 NHM500  -1.0000
    60 O6A         17.1380    20.6270    71.4310 O.3          1 NHM500   0.0000
    61 C10         18.9370    22.6770    70.2990 C.3          1 NHM500   0.0000
    62 O10         18.3950    21.7140    69.4310 O.3          1 NHM500   0.0000
    63 C3          22.6880    25.2740    73.9730 C.3          1 NHM500   0.0000
    64 C2          23.8980    26.0260    74.4960 C.3          1 NHM500   0.0000
    65 H6A1        19.7466    25.3084    75.0600 H            1 NHM500   0.0000
    66 H6A2        20.8010    25.4292    76.4288 H            1 NHM500   0.0000
    67 H2A         18.9262    23.0344    79.6696 H            1 NHM500   0.0000
    68 H8A         15.5465    22.9689    74.3675 H            1 NHM500   0.0000
    69 HEM1        25.7253    16.8923    88.8768 H            1 NHM500   0.0000
    70 HEM2        25.1692    18.2933    88.2485 H            1 NHM500   0.0000
    71 HEM3        24.1183    17.1726    88.8020 H            1 NHM500   0.0000
    72 HAM1        22.5957    18.0432    83.9788 H            1 NHM500   0.0000
    73 HAM2        23.7786    18.6751    83.0472 H            1 NHM500   0.0000
    74 HBM1        24.9609    18.8226    85.3105 H            1 NHM500   0.0000
    75 HBM2        25.0599    17.4882    84.3744 H            1 NHM500   0.0000
    76 HCM1        23.3567    16.4683    85.6439 H            1 NHM500   0.0000
    77 HCM2        23.2498    17.8042    86.5770 H            1 NHM500   0.0000
    78 HDM1        24.7836    15.6951    87.0737 H            1 NHM500   0.0000
    79 HDM2        25.8345    16.8158    86.5202 H            1 NHM500   0.0000
    80 H9M1        23.7220    20.6676    84.4095 H            1 NHM500   0.0000
    81 H9M2        22.4521    20.0380    85.2205 H            1 NHM500   0.0000
    82 H8M1        21.8084    21.6342    83.5478 H            1 NHM500   0.0000
    83 H8M2        21.1047    20.1746    83.3455 H            1 NHM500   0.0000
    84 H7M1        22.9342    19.6871    81.7670 H            1 NHM500   0.0000
    85 H7M2        23.2587    21.2870    81.8094 H            1 NHM500   0.0000
    86 H6M1        20.5897    20.7434    81.1683 H            1 NHM500   0.0000
    87 H6M2        21.6390    20.1470    80.0683 H            1 NHM500   0.0000
    88 H2M1        24.7827    23.4624    79.0579 H            1 NHM500   0.0000
    89 H2M2        24.2106    24.9674    79.3304 H            1 NHM500   0.0000
    90 H3M1        22.6432    23.7146    77.4560 H            1 NHM500   0.0000
    91 H3M2        22.1847    24.3318    78.8968 H            1 NHM500   0.0000
    92 H4M1        23.5228    21.9580    79.3098 H            1 NHM500   0.0000
    93 H4M2        22.3075    21.7095    78.2477 H            1 NHM500   0.0000
    94 H5M1        21.9322    22.8652    80.8598 H            1 NHM500   0.0000
    95 H5M2        20.7374    22.4993    79.8085 H            1 NHM500   0.0000
    96 HP1         25.7656    26.3151    76.5385 H            1 NHM500   0.0000
    97 HP2         24.9614    26.6783    77.9125 H            1 NHM500   0.0000
    98 H34         23.7864    24.4627    72.3660 H            1 NHM500   0.0000
    99 H35         23.1268    24.0781    70.2416 H            1 NHM500   0.0000
   100 H36         23.4063    25.6522    69.9087 H            1 NHM500   0.0000
   101 H37         21.9634    24.3979    68.2928 H            1 NHM500   0.0000
   102 H38         21.4317    25.8725    68.7505 H            1 NHM500   0.0000
   103 H39         19.6841    24.9560    69.8561 H            1 NHM500   0.0000
   104 H40         18.9312    24.0418    72.6676 H            1 NHM500   0.0000
   105 H41         19.5350    22.9022    73.6693 H            1 NHM500   0.0000
   106 H42         20.4650    23.5155    72.4753 H            1 NHM500   0.0000
   107 H43         19.6802    20.1961    71.2759 H            1 NHM500   0.0000
   108 H44         20.9172    21.1989    71.6377 H            1 NHM500   0.0000
   109 H45         19.9872    20.5857    72.8317 H            1 NHM500   0.0000
   110 H46         17.0197    22.5023    72.1122 H            1 NHM500   0.0000
   111 H47         17.6705    21.4465    73.1745 H            1 NHM500   0.0000
   112 H4X         13.1382    19.0623    76.1878 H            1 NHM500   0.0000
   113 H1X         14.9164    21.5567    77.7468 H            1 NHM500   0.0000
   114 H2X         13.4234    22.6488    75.5668 H            1 NHM500   0.0000
   115 H51         12.2929    22.9811    77.9426 H            1 NHM500   0.0000
   116 H3X         11.7097    21.1958    75.9957 H            1 NHM500   0.0000
   117 H5X1        12.3446    19.7593    74.0937 H            1 NHM500   0.0000
   118 H5X2        13.5106    20.8998    74.0133 H            1 NHM500   0.0000
   119 H55         18.3386    23.4782    70.2943 H            1 NHM500   0.0000
   120 H56         17.8265    21.0777    69.9524 H            1 NHM500   0.0000
   121 H57         22.5608    24.4233    74.4831 H            1 NHM500   0.0000
   122 H58         21.8664    25.8381    74.0554 H            1 NHM500   0.0000
   123 H59         24.6666    25.3934    74.5916 H            1 NHM500   0.0000
   124 H60         24.1417    26.7518    73.8527 H            1 NHM500   0.0000
@<TRIPOS>BOND
     1    1    2       1
     2    2    3      ar
     3    2    7      ar
     4    3    4      ar
     5    4    5      ar
     6    5    6      ar
     7    6    7      ar
     8    6    8       1
     9    7    9       1
    10    8   10       1
    11    8   52       1
    12    9   10       2
    13   11   15       1
    14   12   13       1
    15   12   16       1
    16   13   14       1
    17   14   15       1
    18   16   17       1
    19   17   18       1
    20   18   19       1
    21   19   23       1
    22   20   21       1
    23   20   24       1
    24   21   22       1
    25   22   23       1
    26   24   25       2
    27   24   26       1
    28   26   32       1
    29   27   28      ar
    30   27   29      ar
    31   27   30      ar
    32   27   31       1
    33   31   55       1
    34   32   64       1
    35   33   34      am
    36   33   63       1
    37   34   35       2
    38   34   36       1
    39   36   37       1
    40   37   38       1
    41   38   39      am
    42   39   40       2
    43   39   61       1
    44   41   42       1
    45   42   43       1
    46   42   44       1
    47   42   61       1
    48   44   60       1
    49   45   46      ar
    50   45   47      ar
    51   45   48       1
    52   45   49       1
    53   48   57       1
    54   49   56       1
    55   50   51       1
    56   50   55       1
    57   50   56       1
    58   51   52       1
    59   52   53       1
    60   53   54       1
    61   53   55       1
    62   57   58      ar
    63   57   59      ar
    64   57   60       1
    65   61   62       1
    66   63   64       1
    67    1   65       1
    68    1   66       1
    69    4   67       1
    70   10   68       1
    71   11   69       1
    72   11   70       1
    73   11   71       1
    74   12   72       1
    75   12   73       1
    76   13   74       1
    77   13   75       1
    78   14   76       1
    79   14   77       1
    80   15   78       1
    81   15   79       1
    82   16   80       1
    83   16   81       1
    84   17   82       1
    85   17   83       1
    86   18   84       1
    87   18   85       1
    88   19   86       1
    89   19   87       1
    90   20   88       1
    91   20   89       1
    92   21   90       1
    93   21   91       1
    94   22   92       1
    95   22   93       1
    96   23   94       1
    97   23   95       1
    98   26   96       1
    99   26   97       1
   100   64  124       1
   101   64  123       1
   102   33   98       1
   103   36   99       1
   104   36  100       1
   105   37  101       1
   106   37  102       1
   107   38  103       1
   108   41  104       1
   109   41  105       1
   110   41  106       1
   111   43  107       1
   112   43  108       1
   113   43  109       1
   114   44  110       1
   115   44  111       1
   116   63  122       1
   117   50  112       1
   118   52  113       1
   119   53  114       1
   120   54  115       1
   121   55  116       1
   122   56  117       1
   123   56  118       1
   124   63  121       1
   125   61  119       1
   126   62  120       1
@<TRIPOS>SUBSTRUCTURE
     1 NHM500      1 GROUP             4 A     NHM     0 **** NHM A 500
