@<TRIPOS>MOLECULE
5itz_LOC_1_ligand
   54    56     1     0     0
SMALL
NO_CHARGES


@<TRIPOS>ATOM
     1 O4          -5.8210    22.3590   -25.0200 O.2          1 LOC502   0.0000
     2 C12         -5.5900    21.5620   -24.1270 C.2          1 LOC502   0.0000
     3 C13         -6.6290    21.1790   -23.1130 C.3          1 LOC502   0.0000
     4 N1          -4.4020    20.9740   -23.9920 N.am         1 LOC502   0.0000
     5 C11         -3.3060    21.2130   -24.9170 C.3          1 LOC502   0.0000
     6 C14         -3.5100    20.4970   -26.2210 C.2          1 LOC502   0.0000
     7 C15         -4.2730    19.3910   -26.2020 C.2          1 LOC502   0.0000
     8 C10         -1.9860    20.7680   -24.2870 C.3          1 LOC502   0.0000
     9 C9          -0.8100    20.7900   -25.2660 C.3          1 LOC502   0.0000
    10 C8          -0.8470    22.0660   -26.0750 C.ar         1 LOC502   0.0000
    11 C7           0.0650    23.0960   -25.8330 C.ar         1 LOC502   0.0000
    12 C5           0.0540    24.2880   -26.5630 C.ar         1 LOC502   0.0000
    13 C3          -0.9490    24.5050   -27.6350 C.ar         1 LOC502   0.0000
    14 C1          -1.9330    23.4420   -27.9330 C.ar         1 LOC502   0.0000
    15 O1          -2.8670    23.6190   -28.9160 O.3          1 LOC502   0.0000
    16 C2          -4.1480    24.1400   -28.5670 C.3          1 LOC502   0.0000
    17 O2          -0.9580    25.6660   -28.3560 O.3          1 LOC502   0.0000
    18 C4          -0.2780    25.6770   -29.6090 C.3          1 LOC502   0.0000
    19 O3           0.9650    25.2810   -26.3000 O.3          1 LOC502   0.0000
    20 C6           2.1190    25.0180   -25.5060 C.3          1 LOC502   0.0000
    21 C22         -1.8810    22.1980   -27.1300 C.ar         1 LOC502   0.0000
    22 C21         -2.8360    21.0710   -27.3800 C.2          1 LOC502   0.0000
    23 C20         -2.9450    20.6870   -28.6620 C.2          1 LOC502   0.0000
    24 C19         -3.7510    19.6480   -29.2900 C.2          1 LOC502   0.0000
    25 C17         -4.4860    18.6890   -28.7190 C.2          1 LOC502   0.0000
    26 C16         -4.6590    18.4690   -27.2870 C.2          1 LOC502   0.0000
    27 O5          -5.1950    17.4230   -26.9590 O.2          1 LOC502   0.0000
    28 O6          -5.1870    17.7840   -29.6140 O.3          1 LOC502   0.0000
    29 C18         -4.9650    17.8590   -31.0190 C.3          1 LOC502   0.0000
    30 H1          -6.2408    20.5173   -22.4715 H            1 LOC502   0.0000
    31 H2          -6.9238    21.9938   -22.6138 H            1 LOC502   0.0000
    32 H3          -7.4144    20.7708   -23.5783 H            1 LOC502   0.0000
    33 H4          -4.2591    20.3459   -23.2271 H            1 LOC502   0.0000
    34 H5          -3.2544    22.1948   -25.0997 H            1 LOC502   0.0000
    35 H6          -4.6403    19.1534   -25.3027 H            1 LOC502   0.0000
    36 H7          -2.0964    19.8350   -23.9445 H            1 LOC502   0.0000
    37 H8          -1.7759    21.3802   -23.5247 H            1 LOC502   0.0000
    38 H9          -0.8743    20.0041   -25.8810 H            1 LOC502   0.0000
    39 H10          0.0487    20.7444   -24.7556 H            1 LOC502   0.0000
    40 H11          0.7488    22.9766   -25.1132 H            1 LOC502   0.0000
    41 H12         -4.7142    24.2104   -29.3882 H            1 LOC502   0.0000
    42 H13         -4.5887    23.5287   -27.9096 H            1 LOC502   0.0000
    43 H14         -4.0392    25.0462   -28.1584 H            1 LOC502   0.0000
    44 H15         -0.3636    26.5815   -30.0268 H            1 LOC502   0.0000
    45 H16          0.6889    25.4663   -29.4654 H            1 LOC502   0.0000
    46 H17         -0.6824    24.9909   -30.2138 H            1 LOC502   0.0000
    47 H18          2.6632    25.8528   -25.4221 H            1 LOC502   0.0000
    48 H19          1.8356    24.7121   -24.5971 H            1 LOC502   0.0000
    49 H20          2.6679    24.3046   -25.9417 H            1 LOC502   0.0000
    50 H21         -2.3725    21.2050   -29.2975 H            1 LOC502   0.0000
    51 H22         -3.7546    19.6534   -30.2900 H            1 LOC502   0.0000
    52 H23         -5.5228    17.1701   -31.4819 H            1 LOC502   0.0000
    53 H24         -5.2178    18.7688   -31.3483 H            1 LOC502   0.0000
    54 H25         -3.9986    17.6908   -31.2132 H            1 LOC502   0.0000
@<TRIPOS>BOND
     1    1    2       2
     2    2    3       1
     3    2    4      am
     4    4    5       1
     5    5    6       1
     6    5    8       1
     7    6    7       2
     8    6   22       1
     9    7   26       1
    10    8    9       1
    11    9   10       1
    12   10   11      ar
    13   10   21      ar
    14   11   12      ar
    15   12   13      ar
    16   12   19       1
    17   13   14      ar
    18   13   17       1
    19   14   15       1
    20   14   21      ar
    21   15   16       1
    22   17   18       1
    23   19   20       1
    24   21   22       1
    25   22   23       2
    26   23   24       1
    27   24   25       2
    28   25   26       1
    29   25   28       1
    30   26   27       2
    31   28   29       1
    32    3   30       1
    33    3   31       1
    34    3   32       1
    35    4   33       1
    36    5   34       1
    37    7   35       1
    38    8   36       1
    39    8   37       1
    40    9   38       1
    41    9   39       1
    42   11   40       1
    43   16   41       1
    44   16   42       1
    45   16   43       1
    46   18   44       1
    47   18   45       1
    48   18   46       1
    49   20   47       1
    50   20   48       1
    51   20   49       1
    52   23   50       1
    53   24   51       1
    54   29   52       1
    55   29   53       1
    56   29   54       1
@<TRIPOS>SUBSTRUCTURE
     1 LOC502      1 GROUP             4 B     LOC     0 **** LOC B 502
