@<TRIPOS>MOLECULE
1m7b_GTP_1_ligand
   44    46     1     0     0
SMALL
NO_CHARGES


@<TRIPOS>ATOM
     1 PG          25.8430    31.3970     9.6120 P.3          1 GTP538   0.0000
     2 O1G         26.9030    32.4550     9.7550 O.co2        1 GTP538   0.0000
     3 O2G         25.6170    30.9340     8.2060 O.co2        1 GTP538  -1.0000
     4 O3G         24.6230    31.8620    10.2660 O.co2        1 GTP538  -1.0000
     5 O3B         26.5120    30.0530    10.5720 O.3          1 GTP538   0.0000
     6 PB          25.9350    28.5240    10.8880 P.3          1 GTP538   0.0000
     7 O1B         24.9880    28.5930    12.0810 O.co2        1 GTP538   0.0000
     8 O2B         25.3330    27.9780     9.6950 O.co2        1 GTP538  -1.0000
     9 O3A         27.2190    27.7210    11.2540 O.3          1 GTP538   0.0000
    10 PA          27.9490    26.4510    10.5690 P.3          1 GTP538   0.0000
    11 O1A         27.1060    25.2810    10.4530 O.co2        1 GTP538   0.0000
    12 O2A         28.5540    26.9900     9.2610 O.co2        1 GTP538  -1.0000
    13 O5'         29.1130    26.1110    11.7300 O.3          1 GTP538   0.0000
    14 C5'         30.0310    27.2700    11.9570 C.3          1 GTP538   0.0000
    15 C4'         31.2970    26.4720    12.5480 C.3          1 GTP538   0.0000
    16 O4'         31.0000    25.5460    13.6280 O.3          1 GTP538   0.0000
    17 C3'         32.0810    25.7120    11.5760 C.3          1 GTP538   0.0000
    18 O3'         33.4510    26.0330    11.6380 O.3          1 GTP538   0.0000
    19 C2'         31.8020    24.1870    11.7690 C.3          1 GTP538   0.0000
    20 O2'         32.7970    23.3950    11.4170 O.3          1 GTP538   0.0000
    21 C1'         31.5340    24.2300    13.4350 C.3          1 GTP538   0.0000
    22 N9          30.4710    23.2090    13.7980 N.pl3        1 GTP538   0.0000
    23 C8          29.2470    23.0890    13.1300 C.2          1 GTP538   0.0000
    24 N7          28.7240    22.0600    13.8420 N.2          1 GTP538   0.0000
    25 C5          29.5270    21.5640    14.8660 C.2          1 GTP538   0.0000
    26 C6          29.2870    20.6100    15.6850 C.2          1 GTP538   0.0000
    27 O6          28.3720    19.7730    15.9400 O.2          1 GTP538   0.0000
    28 N1          30.4590    20.4010    16.6620 N.pl3        1 GTP538   0.0000
    29 C2          31.4690    21.2060    16.4980 C.2          1 GTP538   0.0000
    30 N2          32.5980    20.9990    17.4520 N.pl3        1 GTP538   0.0000
    31 N3          31.7160    22.2090    15.6310 N.2          1 GTP538   0.0000
    32 C4          30.6260    22.3110    14.8180 C.2          1 GTP538   0.0000
    33 H5'1        29.6568    27.9218    12.6167 H            1 GTP538   0.0000
    34 H5'2        30.2515    27.7465    11.1060 H            1 GTP538   0.0000
    35 H4'         31.9124    27.1619    12.9292 H            1 GTP538   0.0000
    36 H3'         31.7548    25.9637    10.6648 H            1 GTP538   0.0000
    37 H5          33.9507    25.4939    10.9600 H            1 GTP538   0.0000
    38 H2'         30.9643    23.9247    11.2900 H            1 GTP538   0.0000
    39 H7          32.7779    22.5668    11.9771 H            1 GTP538   0.0000
    40 H1'         32.3781    24.0901    13.9526 H            1 GTP538   0.0000
    41 H9          28.8716    23.6057    12.3605 H            1 GTP538   0.0000
    42 H10         30.4452    19.6969    17.3720 H            1 GTP538   0.0000
    43 H11         33.4131    21.5755    17.3948 H            1 GTP538   0.0000
    44 H12         32.5394    20.2838    18.1484 H            1 GTP538   0.0000
@<TRIPOS>BOND
     1    1    2      ar
     2    1    3      ar
     3    1    4      ar
     4    1    5       1
     5    5    6       1
     6    6    7      ar
     7    6    8      ar
     8    6    9       1
     9    9   10       1
    10   10   11      ar
    11   10   12      ar
    12   10   13       1
    13   13   14       1
    14   14   15       1
    15   15   16       1
    16   15   17       1
    17   16   21       1
    18   17   18       1
    19   17   19       1
    20   19   20       1
    21   19   21       1
    22   21   22       1
    23   22   23       1
    24   22   32       1
    25   23   24       2
    26   24   25       1
    27   25   26       1
    28   25   32       2
    29   26   27       2
    30   26   28       1
    31   28   29       1
    32   29   30       1
    33   29   31       2
    34   31   32       1
    35   30   44       1
    36   30   43       1
    37   28   42       1
    38   23   41       1
    39   14   33       1
    40   14   34       1
    41   15   35       1
    42   17   36       1
    43   18   37       1
    44   19   38       1
    45   20   39       1
    46   21   40       1
@<TRIPOS>SUBSTRUCTURE
     1 GTP538      1 GROUP             4 A     GTP     0 **** GTP A 538
