@<TRIPOS>MOLECULE
1g60_SAM_1_ligand
   50    52     1     0     0
SMALL
NO_CHARGES


@<TRIPOS>ATOM
     1 N            2.4000    53.4930    -2.6790 N.4          1 SAM500   1.0000
     2 CA           1.1990    54.2870    -2.3210 C.3          1 SAM500   0.0000
     3 C            1.6110    55.7640    -2.2550 C.2          1 SAM500   0.0000
     4 O            2.8430    56.0110    -2.4780 O.co2        1 SAM500   0.0000
     5 OXT          0.8880    56.5910    -1.6920 O.co2        1 SAM500  -1.0000
     6 CB           0.6190    53.8580    -0.9710 C.3          1 SAM500   0.0000
     7 CG          -0.3620    52.7110    -1.0810 C.3          1 SAM500   0.0000
     8 SD          -1.0560    52.2150     0.5320 S.3          1 SAM500   1.0000
     9 CE           0.1140    51.2810     1.5560 C.3          1 SAM500   0.0000
    10 C5'         -2.2750    50.9140     0.1730 C.3          1 SAM500   0.0000
    11 C4'         -3.5850    51.6080    -0.3460 C.3          1 SAM500   0.0000
    12 O4'         -4.4260    50.4700    -0.5600 O.3          1 SAM500   0.0000
    13 C3'         -4.4030    52.6030     0.4730 C.3          1 SAM500   0.0000
    14 O3'         -4.5540    53.8880    -0.1990 O.3          1 SAM500   0.0000
    15 C2'         -5.8370    51.9330     0.5510 C.3          1 SAM500   0.0000
    16 O2'         -6.9850    52.8420     0.4150 O.3          1 SAM500   0.0000
    17 C1'         -5.7910    50.9470    -0.6510 C.3          1 SAM500   0.0000
    18 N9          -6.6110    49.7380    -0.3830 N.pl3        1 SAM500   0.0000
    19 C8          -6.5470    48.8150     0.6620 C.2          1 SAM500   0.0000
    20 N7          -7.1420    47.6670     0.4420 N.2          1 SAM500   0.0000
    21 C5          -7.6600    47.8180    -0.8860 C.ar         1 SAM500   0.0000
    22 C6          -8.4120    46.9130    -1.7520 C.ar         1 SAM500   0.0000
    23 N6          -8.7900    45.6790    -1.3510 N.pl3        1 SAM500   0.0000
    24 N1          -8.6830    47.4210    -2.9830 N.ar         1 SAM500   0.0000
    25 C2          -8.3140    48.6400    -3.3330 C.ar         1 SAM500   0.0000
    26 N3          -7.6160    49.6130    -2.6920 N.ar         1 SAM500   0.0000
    27 C4          -7.3290    49.0590    -1.4270 C.ar         1 SAM500   0.0000
    28 H1           2.8772    53.2159    -1.8450 H            1 SAM500   0.0000
    29 H2           2.1217    52.6795    -3.1897 H            1 SAM500   0.0000
    30 HA           0.5037    54.1704    -3.0302 H            1 SAM500   0.0000
    31 HB1          0.1483    54.6409    -0.5641 H            1 SAM500   0.0000
    32 HB2          1.3722    53.5761    -0.3766 H            1 SAM500   0.0000
    33 HG1          0.1093    51.9250    -1.4811 H            1 SAM500   0.0000
    34 HG2         -1.1130    52.9895    -1.6797 H            1 SAM500   0.0000
    35 HE1         -0.3216    51.0385     2.4229 H            1 SAM500   0.0000
    36 HE2          0.3863    50.4476     1.0751 H            1 SAM500   0.0000
    37 HE3          0.9223    51.8420     1.7346 H            1 SAM500   0.0000
    38 H5'1        -2.4724    50.3948     1.0045 H            1 SAM500   0.0000
    39 H5'2        -1.9169    50.2972    -0.5280 H            1 SAM500   0.0000
    40 H4'         -3.3880    52.0223    -1.2346 H            1 SAM500   0.0000
    41 H3'         -4.0130    52.7206     1.3863 H            1 SAM500   0.0000
    42 H15         -5.0188    53.7539    -1.0742 H            1 SAM500   0.0000
    43 H2'         -5.9187    51.4169     1.4036 H            1 SAM500   0.0000
    44 H17         -6.9427    53.3020    -0.4719 H            1 SAM500   0.0000
    45 H1'         -6.0008    51.3811    -1.5271 H            1 SAM500   0.0000
    46 H19         -6.0782    49.0158     1.5222 H            1 SAM500   0.0000
    47 H20         -9.3041    45.0871    -1.9718 H            1 SAM500   0.0000
    48 H21         -8.5556    45.3578    -0.4335 H            1 SAM500   0.0000
    49 H22         -8.6070    48.8980    -4.2536 H            1 SAM500   0.0000
    50 H23          3.0106    54.0484    -3.2435 H            1 SAM500   0.0000
@<TRIPOS>BOND
     1    1    2       1
     2    2    3       1
     3    2    6       1
     4    3    4      ar
     5    3    5      ar
     6    6    7       1
     7    7    8       1
     8    8    9       1
     9    8   10       1
    10   10   11       1
    11   11   12       1
    12   11   13       1
    13   12   17       1
    14   13   14       1
    15   13   15       1
    16   15   16       1
    17   15   17       1
    18   17   18       1
    19   18   19       1
    20   18   27       1
    21   19   20       2
    22   20   21       1
    23   21   22      ar
    24   21   27      ar
    25   22   23       1
    26   22   24      ar
    27   24   25      ar
    28   25   26      ar
    29   26   27      ar
    30    1   28       1
    31    1   29       1
    32    2   30       1
    33    1   50       1
    34    6   31       1
    35    6   32       1
    36    7   33       1
    37    7   34       1
    38    9   35       1
    39    9   36       1
    40    9   37       1
    41   10   38       1
    42   10   39       1
    43   11   40       1
    44   13   41       1
    45   14   42       1
    46   15   43       1
    47   16   44       1
    48   17   45       1
    49   19   46       1
    50   23   47       1
    51   23   48       1
    52   25   49       1
@<TRIPOS>SUBSTRUCTURE
     1 SAM500      1 GROUP             4 A     SAM     0 **** SAM A 500
