@<TRIPOS>MOLECULE
1z0d_GDP_1_ligand
   40    42     1     0     0
SMALL
NO_CHARGES


@<TRIPOS>ATOM
     1 PB           4.9690    15.2000    52.6700 P.3          1 GDP700   0.0000
     2 O1B          6.1440    16.1350    52.8040 O.co2        1 GDP700   0.0000
     3 O2B          3.6800    15.9610    52.8720 O.co2        1 GDP700  -1.0000
     4 O3B          4.9710    14.5830    51.2870 O.co2        1 GDP700  -1.0000
     5 O3A          5.1540    14.0680    53.7910 O.3          1 GDP700   0.0000
     6 PA           3.9750    13.3530    54.6170 P.3          1 GDP700   0.0000
     7 O1A          3.4050    14.2510    55.6900 O.co2        1 GDP700   0.0000
     8 O2A          2.8940    12.8710    53.6790 O.co2        1 GDP700  -1.0000
     9 O5'          4.7770    12.1410    55.2860 O.3          1 GDP700   0.0000
    10 C5'          5.4110    11.1410    54.4890 C.3          1 GDP700   0.0000
    11 C4'          5.6780     9.9160    55.3520 C.3          1 GDP700   0.0000
    12 O4'          6.6090    10.2730    56.3700 O.3          1 GDP700   0.0000
    13 C3'          4.4240     9.4060    56.0520 C.3          1 GDP700   0.0000
    14 O3'          4.4620     7.9760    56.0380 O.3          1 GDP700   0.0000
    15 C2'          4.5420     9.9190    57.4750 C.3          1 GDP700   0.0000
    16 O2'          3.9320     9.0510    58.4470 O.3          1 GDP700   0.0000
    17 C1'          6.0510     9.9810    57.6540 C.3          1 GDP700   0.0000
    18 N9           6.4480    11.0360    58.6050 N.pl3        1 GDP700   0.0000
    19 C8           6.2200    12.3610    58.4950 C.2          1 GDP700   0.0000
    20 N7           6.7280    13.0310    59.5580 N.2          1 GDP700   0.0000
    21 C5           7.3020    12.1110    60.3590 C.2          1 GDP700   0.0000
    22 C6           8.0340    12.1150    61.6420 C.2          1 GDP700   0.0000
    23 O6           8.2380    13.1800    62.2440 O.2          1 GDP700   0.0000
    24 N1           8.4660    10.9450    62.1360 N.pl3        1 GDP700   0.0000
    25 C2           8.2620     9.7720    61.5080 C.2          1 GDP700   0.0000
    26 N2           8.7230     8.6330    62.0750 N.pl3        1 GDP700   0.0000
    27 N3           7.6060     9.6930    60.3240 N.2          1 GDP700   0.0000
    28 C4           7.1190    10.8040    59.7230 C.2          1 GDP700   0.0000
    29 H5'1         6.2756    11.4948    54.1323 H            1 GDP700   0.0000
    30 H5'2         4.8135    10.8907    53.7271 H            1 GDP700   0.0000
    31 H4'          6.0646     9.1873    54.7868 H            1 GDP700   0.0000
    32 H3'          3.5962     9.7510    55.6097 H            1 GDP700   0.0000
    33 H5           3.9868     7.6220    56.8435 H            1 GDP700   0.0000
    34 H2'          4.1509    10.8369    57.5419 H            1 GDP700   0.0000
    35 H7           2.9750     9.3122    58.5731 H            1 GDP700   0.0000
    36 H1'          6.3884     9.0956    57.9738 H            1 GDP700   0.0000
    37 H9           5.7400    12.7917    57.7307 H            1 GDP700   0.0000
    38 H10          8.9594    10.9442    63.0058 H            1 GDP700   0.0000
    39 H11          8.5789     7.7542    61.6201 H            1 GDP700   0.0000
    40 H12          9.2077     8.6702    62.9489 H            1 GDP700   0.0000
@<TRIPOS>BOND
     1    1    2      ar
     2    1    3      ar
     3    1    4      ar
     4    1    5       1
     5    5    6       1
     6    6    7      ar
     7    6    8      ar
     8    6    9       1
     9    9   10       1
    10   10   11       1
    11   11   12       1
    12   11   13       1
    13   12   17       1
    14   13   14       1
    15   13   15       1
    16   15   16       1
    17   15   17       1
    18   17   18       1
    19   18   19       1
    20   18   28       1
    21   19   20       2
    22   20   21       1
    23   21   22       1
    24   21   28       2
    25   22   23       2
    26   22   24       1
    27   24   25       1
    28   25   26       1
    29   25   27       2
    30   27   28       1
    31   26   40       1
    32   26   39       1
    33   24   38       1
    34   10   29       1
    35   10   30       1
    36   11   31       1
    37   13   32       1
    38   14   33       1
    39   15   34       1
    40   16   35       1
    41   17   36       1
    42   19   37       1
@<TRIPOS>SUBSTRUCTURE
     1 GDP700      1 GROUP             4 A     GDP     0 **** GDP A 700
