@<TRIPOS>MOLECULE
./coach420/2g25/ligand.pdb
 67 69 0 0 0
SMALL
GASTEIGER

@<TRIPOS>ATOM
      1  O2B       22.3120  -32.0520   19.1530 O.2   887  TDK887     -0.2221
      2  PB        22.3420  -31.7080   17.7220 P.3   887  TDK887      0.5373
      3  O3B       23.3840  -30.7920   17.2410 O.3   887  TDK887     -0.1143
      4  O1B       20.9140  -31.1180   17.3000 O.3   887  TDK887     -0.1143
      5  O3A       22.4410  -33.0920   16.8940 O.3   887  TDK887     -0.2261
      6  PA        21.5290  -33.4490   15.6050 P.3   887  TDK887      0.2230
      7  O1A       20.1380  -32.9850   15.8100 O.3   887  TDK887     -0.4370
      8  O2A       21.7580  -34.8740   15.2990 O.2   887  TDK887     -0.5169
      9  O7        22.2080  -32.5660   14.4470 O.3   887  TDK887     -0.3134
     10  C7        23.4800  -32.9610   13.9320 C.3   887  TDK887      0.1544
     11  C6        23.8080  -32.1770   12.7350 C.3   887  TDK887      0.0661
     12  C5        25.1590  -32.4420   12.1810 C.2   887  TDK887      0.0164
     13  S1        26.5390  -32.2440   13.1890 S.3   887  TDK887     -0.0946
     14  C4        25.5550  -32.7940   10.9290 C.2   887  TDK887      0.0279
     15  CM4       24.6720  -32.9900    9.7500 C.3   887  TDK887      0.0473
     16  N3        26.9200  -32.8960   10.8130 N.pl3 887  TDK887     -0.2966
     17  C2        27.6030  -32.5950   11.9400 C.3   887  TDK887      0.1650
     18  CMA       29.0590  -32.2190   12.0490 C.3   887  TDK887      0.2468
     19  OM1       29.8610  -33.0940   11.2290 O.3   887  TDK887     -0.2105
     20  CMB       29.5050  -32.2490   13.4870 C.3   887  TDK887      0.0484
     21  PC        29.1230  -30.4900   11.4000 P.3   887  TDK887      0.3985
     22  OM3       28.6450  -30.4740   10.0080 O.2   887  TDK887     -0.2529
     23  OM2       30.6700  -30.2120   11.4510 O.3   887  TDK887     -0.2883
     24  CMC       31.4310  -29.8300   10.3850 C.3   887  TDK887      0.1840
     25  OM4       28.4360  -29.5980   12.3470 O.3   887  TDK887     -0.1376
     26  C7'       27.5720  -33.3300    9.5550 C.3   887  TDK887      0.1226
     27  C5'       27.4630  -34.8270    9.3620 C.ar  887  TDK887      0.0516
     28  C6'       26.7420  -35.3300    8.3840 C.ar  887  TDK887      0.1005
     29  N1'       26.6920  -36.6350    8.1510 N.ar  887  TDK887     -0.2293
     30  C2'       27.3870  -37.4890    8.9130 C.ar  887  TDK887      0.1411
     31  CM2       27.3160  -38.9120    8.6010 C.3   887  TDK887      0.0737
     32  N3'       28.1350  -37.0950    9.9190 N.ar  887  TDK887     -0.2130
     33  C4'       28.2050  -35.7690   10.1810 C.ar  887  TDK887      0.1701
     34  N4'       28.9480  -35.4110   11.1770 N.pl3 887  TDK887     -0.1074
     35  PB        14.5720  -65.6130    0.3990 P.3   887  TDK887      0.5458
     36  O3B       15.5540  -66.3750   -0.3870 O.2   887  TDK887     -0.2269
     37  O1B       14.4090  -66.3140    1.8310 O.2   887  TDK887     -0.2269
     38  O3A       15.1980  -64.1750    0.7670 O.3   887  TDK887     -0.2307
     39  PA        15.9000  -63.8790    2.1900 P.3   887  TDK887      0.2222
     40  O1A       15.1200  -64.5310    3.2640 O.3   887  TDK887     -0.4370
     41  O2A       16.1480  -62.4240    2.2730 O.2   887  TDK887     -0.5170
     42  O7        17.3140  -64.6250    2.0390 O.3   887  TDK887     -0.3135
     43  C7        18.3280  -64.0500    1.2050 C.3   887  TDK887      0.1544
     44  C6        19.6380  -64.6580    1.5000 C.3   887  TDK887      0.0661
     45  C5        20.7560  -64.2190    0.6200 C.2   887  TDK887      0.0164
     46  S1        20.5610  -64.2830   -1.0850 S.3   887  TDK887     -0.0946
     47  C4        22.0100  -63.7900    0.9210 C.2   887  TDK887      0.0279
     48  CM4       22.5760  -63.6450    2.2860 C.3   887  TDK887      0.0473
     49  N3        22.7690  -63.5340   -0.1940 N.pl3 887  TDK887     -0.2966
     50  C2        22.1420  -63.7870   -1.3690 C.3   887  TDK887      0.1650
     51  CMA       22.7690  -63.9930   -2.7270 C.3   887  TDK887      0.2468
     52  OM1       23.7290  -62.9520   -2.9880 O.3   887  TDK887     -0.2105
     53  CMB       21.6940  -64.0350   -3.7850 C.3   887  TDK887      0.0484
     54  PC        23.6170  -65.6330   -2.6290 P.3   887  TDK887      0.3985
     55  OM3       24.5520  -65.6340   -1.4940 O.3   887  TDK887     -0.1376
     56  OM2       24.3980  -65.6300   -3.9950 O.3   887  TDK887     -0.2883
     57  CMC       25.7200  -65.9180   -4.1390 C.3   887  TDK887      0.1840
     58  OM4       22.5980  -66.6890   -2.6540 O.2   887  TDK887     -0.2529
     59  C7'       24.1380  -62.9570   -0.1010 C.3   887  TDK887      0.1226
     60  C5'       24.0970  -61.4550    0.1710 C.ar  887  TDK887      0.0516
     61  C6'       24.6190  -60.9420    1.2690 C.ar  887  TDK887      0.1005
     62  N1'       24.6460  -59.6260    1.4930 N.ar  887  TDK887     -0.2293
     63  C2'       24.1300  -58.7740    0.5900 C.ar  887  TDK887      0.1411
     64  CM2       24.1880  -57.3400    0.8620 C.3   887  TDK887      0.0737
     65  N3'       23.5860  -59.1740   -0.5270 N.ar  887  TDK887     -0.2130
     66  C4'       23.5490  -60.5100   -0.7830 C.ar  887  TDK887      0.1701
     67  N4'       23.0170  -60.8700   -1.9060 N.pl3 887  TDK887     -0.1074
@<TRIPOS>BOND
     1     1     2    2
     2     2     5    1
     3     2     3    1
     4     2     4    1
     5     5     6    1
     6     6     9    1
     7     6     8    2
     8     6     7    1
     9     9    10    1
    10    10    11    1
    11    11    12    1
    12    12    14    2
    13    12    13    1
    14    13    17    1
    15    14    15    1
    16    14    16    1
    17    16    26    1
    18    16    17    1
    19    17    18    1
    20    18    19    1
    21    18    21    1
    22    18    20    1
    23    21    22    2
    24    21    23    1
    25    21    25    1
    26    23    24    1
    27    26    27    1
    28    27    28   ar
    29    27    33   ar
    30    28    29   ar
    31    29    30   ar
    32    30    31    1
    33    30    32   ar
    34    32    33   ar
    35    33    34    1
    36    35    36    2
    37    35    38    1
    38    35    37    2
    39    38    39    1
    40    39    42    1
    41    39    41    2
    42    39    40    1
    43    42    43    1
    44    43    44    1
    45    44    45    1
    46    45    46    1
    47    45    47    2
    48    46    50    1
    49    47    49    1
    50    47    48    1
    51    49    50    1
    52    49    59    1
    53    50    51    1
    54    51    53    1
    55    51    52    1
    56    51    54    1
    57    54    56    1
    58    54    58    2
    59    54    55    1
    60    56    57    1
    61    59    60    1
    62    60    66   ar
    63    60    61   ar
    64    61    62   ar
    65    62    63   ar
    66    63    65   ar
    67    63    64    1
    68    65    66   ar
    69    66    67    1
