@<TRIPOS>MOLECULE
5jad_FB2_1_ligand
   17    17     1     0     0
SMALL
NO_CHARGES


@<TRIPOS>ATOM
     1 C01         21.8090     8.9650    -4.3700 C.ar         1 FB2504   0.0000
     2 C02         21.8460     9.0710    -2.9900 C.ar         1 FB2504   0.0000
     3 C03         22.7390     8.3150    -2.2640 C.ar         1 FB2504   0.0000
     4 C04         23.5890     7.4410    -2.9200 C.ar         1 FB2504   0.0000
     5 C05         23.5570     7.3400    -4.3020 C.ar         1 FB2504   0.0000
     6 C06         22.6740     8.1090    -5.0230 C.ar         1 FB2504   0.0000
     7 S07         24.7490     6.4830    -1.9860 S.o2         1 FB2504   0.0000
     8 O09         24.1110     6.1180    -0.7550 O.2          1 FB2504   0.0000
     9 O08         25.9440     7.2680    -1.9400 O.2          1 FB2504   0.0000
    10 NP0         25.0940     5.1270    -2.7620 N.3          1 FB2504   0.0000
    11 H1          21.1547     9.5093    -4.8949 H            1 FB2504   0.0000
    12 H2          21.2237     9.6971    -2.5202 H            1 FB2504   0.0000
    13 H3          22.7734     8.3969    -1.2679 H            1 FB2504   0.0000
    14 H4          24.1741     6.7099    -4.7733 H            1 FB2504   0.0000
    15 H5          22.6582     8.0484    -6.0210 H            1 FB2504   0.0000
    16 HP01        25.4911     5.3449    -3.6535 H            1 FB2504   0.0000
    17 HP02        25.7491     4.5940    -2.2266 H            1 FB2504   0.0000
@<TRIPOS>BOND
     1    1    2      ar
     2    1    6      ar
     3    2    3      ar
     4    3    4      ar
     5    4    5      ar
     6    4    7       1
     7    5    6      ar
     8    7    8       2
     9    7    9       2
    10    7   10       1
    11    1   11       1
    12    2   12       1
    13    3   13       1
    14    5   14       1
    15    6   15       1
    16   10   16       1
    17   10   17       1
@<TRIPOS>SUBSTRUCTURE
     1 FB2504      1 GROUP             4 A     FB2     0 **** FB2 A 504
