@<TRIPOS>MOLECULE
1cbr_REA_1_ligand
   49    49     1     0     0
SMALL
NO_CHARGES


@<TRIPOS>ATOM
     1 C1           5.0920     2.4270   -10.7940 C.3          1 REA200   0.0000
     2 C2           6.0790     1.2390   -10.8790 C.3          1 REA200   0.0000
     3 C3           7.4570     1.5880   -11.3400 C.3          1 REA200   0.0000
     4 C4           8.1090     2.6160   -10.4790 C.3          1 REA200   0.0000
     5 C5           7.1710     3.7700   -10.1040 C.2          1 REA200   0.0000
     6 C6           5.8090     3.6640   -10.1590 C.2          1 REA200   0.0000
     7 C7           4.8670     4.7410    -9.7870 C.2          1 REA200   0.0000
     8 C8           5.0090     5.6850    -8.8490 C.2          1 REA200   0.0000
     9 C9           4.0490     6.7120    -8.5120 C.2          1 REA200   0.0000
    10 C10          4.3830     7.6020    -7.5550 C.2          1 REA200   0.0000
    11 C11          3.5130     8.6700    -7.1050 C.2          1 REA200   0.0000
    12 C12          3.9620     9.5090    -6.1670 C.2          1 REA200   0.0000
    13 C13          3.1640    10.5920    -5.6370 C.2          1 REA200   0.0000
    14 C14          3.7030    11.3990    -4.6890 C.2          1 REA200   0.0000
    15 C15          3.0710    12.5430    -4.0160 C.2          1 REA200   0.0000
    16 C16          3.9070     2.0000    -9.9190 C.3          1 REA200   0.0000
    17 C17          4.5820     2.7980   -12.2130 C.3          1 REA200   0.0000
    18 C18          7.9800     4.9390    -9.5360 C.3          1 REA200   0.0000
    19 C19          2.7160     6.8010    -9.2660 C.3          1 REA200   0.0000
    20 C20          1.7300    10.7780    -6.1620 C.3          1 REA200   0.0000
    21 O1           2.5240    13.4330    -4.7040 O.co2        1 REA200   0.0000
    22 O2           3.0900    12.6020    -2.7660 O.co2        1 REA200  -1.0000
    23 H1           5.7006     0.5674   -11.5160 H            1 REA200   0.0000
    24 H2           6.1513     0.8312    -9.9688 H            1 REA200   0.0000
    25 H3           7.4020     1.9412   -12.2739 H            1 REA200   0.0000
    26 H4           8.0172     0.7597   -11.3293 H            1 REA200   0.0000
    27 H5           8.8945     2.9914   -10.9710 H            1 REA200   0.0000
    28 H6           8.4223     2.1746    -9.6382 H            1 REA200   0.0000
    29 H7           4.0115     4.7676   -10.3041 H            1 REA200   0.0000
    30 H8           5.8637     5.6794    -8.3299 H            1 REA200   0.0000
    31 H9           5.2848     7.5199    -7.1307 H            1 REA200   0.0000
    32 H10          2.5957     8.7769    -7.4885 H            1 REA200   0.0000
    33 H11          4.8899     9.3824    -5.8164 H            1 REA200   0.0000
    34 H12          4.6421    11.1909    -4.4154 H            1 REA200   0.0000
    35 H13          3.2546     2.7547    -9.8500 H            1 REA200   0.0000
    36 H14          3.4574     1.2072   -10.3305 H            1 REA200   0.0000
    37 H15          4.2364     1.7597    -9.0059 H            1 REA200   0.0000
    38 H16          3.9451     3.5662   -12.1480 H            1 REA200   0.0000
    39 H17          5.3576     3.0558   -12.7891 H            1 REA200   0.0000
    40 H18          4.1148     2.0109   -12.6157 H            1 REA200   0.0000
    41 H19          7.3611     5.6864    -9.2943 H            1 REA200   0.0000
    42 H20          8.4733     4.6377    -8.7200 H            1 REA200   0.0000
    43 H21          8.6340     5.2565   -10.2226 H            1 REA200   0.0000
    44 H22          2.1793     7.5637    -8.9053 H            1 REA200   0.0000
    45 H23          2.8927     6.9486   -10.2391 H            1 REA200   0.0000
    46 H24          2.2071     5.9487    -9.1451 H            1 REA200   0.0000
    47 H25          1.3069    11.5609    -5.7058 H            1 REA200   0.0000
    48 H26          1.7546    10.9403    -7.1484 H            1 REA200   0.0000
    49 H27          1.1963     9.9537    -5.9730 H            1 REA200   0.0000
@<TRIPOS>BOND
     1    1    2       1
     2    1    6       1
     3    1   16       1
     4    1   17       1
     5    2    3       1
     6    3    4       1
     7    4    5       1
     8    5    6       2
     9    5   18       1
    10    6    7       1
    11    7    8       2
    12    8    9       1
    13    9   10       2
    14    9   19       1
    15   10   11       1
    16   11   12       2
    17   12   13       1
    18   13   14       2
    19   13   20       1
    20   14   15       1
    21   15   21      ar
    22   15   22      ar
    23    2   23       1
    24    2   24       1
    25    3   25       1
    26    3   26       1
    27    4   27       1
    28    4   28       1
    29    7   29       1
    30    8   30       1
    31   10   31       1
    32   11   32       1
    33   12   33       1
    34   14   34       1
    35   16   35       1
    36   16   36       1
    37   16   37       1
    38   17   38       1
    39   17   39       1
    40   17   40       1
    41   18   41       1
    42   18   42       1
    43   18   43       1
    44   19   44       1
    45   19   45       1
    46   19   46       1
    47   20   47       1
    48   20   48       1
    49   20   49       1
@<TRIPOS>SUBSTRUCTURE
     1 REA200      1 GROUP             4 A     REA     0 **** REA A 200
