@<TRIPOS>MOLECULE
1fm4_DXC_2_ligand
   67    70     1     0     0
SMALL
NO_CHARGES


@<TRIPOS>ATOM
     1 C1          15.5390    -0.7350     9.8020 C.3          1 DXC1002   0.0000
     2 C2          14.6370     0.4760     9.5780 C.3          1 DXC1002   0.0000
     3 C3          15.1480     1.7170    10.4380 C.3          1 DXC1002   0.0000
     4 C4          15.1760     1.3290    11.9820 C.3          1 DXC1002   0.0000
     5 C5          16.0150     0.0780    12.1360 C.3          1 DXC1002   0.0000
     6 C6          15.5240    -1.1320    11.3500 C.3          1 DXC1002   0.0000
     7 C7          14.2880     2.9940    10.2120 C.3          1 DXC1002   0.0000
     8 C8          12.8280     2.7620    10.7210 C.3          1 DXC1002   0.0000
     9 C9          12.7800     2.4170    12.2640 C.3          1 DXC1002   0.0000
    10 C10         13.6460     1.0970    12.4810 C.3          1 DXC1002   0.0000
    11 C11         11.3610     2.1590    12.7520 C.3          1 DXC1002   0.0000
    12 C12         11.2450     1.7760    14.2780 C.3          1 DXC1002   0.0000
    13 C13         12.1210     0.4730    14.4610 C.3          1 DXC1002   0.0000
    14 C14         13.5950     0.7130    14.0040 C.3          1 DXC1002   0.0000
    15 C15         10.3380     3.3310    12.5920 C.3          1 DXC1002   0.0000
    16 C16          9.2110     2.9460    13.5740 C.3          1 DXC1002   0.0000
    17 C17          9.7010     1.6640    14.3290 C.3          1 DXC1002   0.0000
    18 C18         15.8220     2.4820    12.8230 C.3          1 DXC1002   0.0000
    19 C19          9.0080     1.4620    15.7350 C.3          1 DXC1002   0.0000
    20 O1          11.5820    -0.5770    13.7080 O.3          1 DXC1002   0.0000
    21 O2          15.0740    -1.8320     9.0290 O.3          1 DXC1002   0.0000
    22 C20         11.8320     2.9740    15.1660 C.3          1 DXC1002   0.0000
    23 C21          7.4130     1.5510    15.5540 C.3          1 DXC1002   0.0000
    24 C22          6.5770     0.2930    15.7830 C.3          1 DXC1002   0.0000
    25 C23          5.1290     0.5210    15.6550 C.2          1 DXC1002   0.0000
    26 O3           4.4310     0.0240    14.7610 O.co2        1 DXC1002   0.0000
    27 O4           4.5830     1.2530    16.5010 O.co2        1 DXC1002  -1.0000
    28 C24          9.3740     0.2620    16.5280 C.3          1 DXC1002   0.0000
    29 H1          16.4732    -0.5080     9.5270 H            1 DXC1002   0.0000
    30 H2          13.7033     0.2467     9.8532 H            1 DXC1002   0.0000
    31 H3          14.6483     0.7202     8.6084 H            1 DXC1002   0.0000
    32 H4          16.0849     1.9227    10.1552 H            1 DXC1002   0.0000
    33 H5          16.0296    -0.1676    13.1053 H            1 DXC1002   0.0000
    34 H6          16.9439     0.2888    11.8315 H            1 DXC1002   0.0000
    35 H7          16.1300    -1.9115    11.5088 H            1 DXC1002   0.0000
    36 H8          14.5947    -1.3692    11.6330 H            1 DXC1002   0.0000
    37 H9          14.2667     3.2089     9.2356 H            1 DXC1002   0.0000
    38 H10         14.6944     3.7583    10.7127 H            1 DXC1002   0.0000
    39 H11         12.4253     2.0034    10.2088 H            1 DXC1002   0.0000
    40 H12         12.2952     3.5928    10.5602 H            1 DXC1002   0.0000
    41 H13         13.1812     3.1691    12.7868 H            1 DXC1002   0.0000
    42 H14         13.2416     0.3543    11.9472 H            1 DXC1002   0.0000
    43 H15         11.0059     1.3854    12.2271 H            1 DXC1002   0.0000
    44 H16         12.1190     0.2138    15.4268 H            1 DXC1002   0.0000
    45 H17         13.9896     1.4566    14.5438 H            1 DXC1002   0.0000
    46 H18         14.1246    -0.1225    14.1502 H            1 DXC1002   0.0000
    47 H19          9.9951     3.3830    11.6541 H            1 DXC1002   0.0000
    48 H20         10.7514     4.2058    12.8447 H            1 DXC1002   0.0000
    49 H21          8.3676     2.7513    13.0733 H            1 DXC1002   0.0000
    50 H22          9.0492     3.6891    14.2233 H            1 DXC1002   0.0000
    51 H23          9.4474     0.8788    13.7641 H            1 DXC1002   0.0000
    52 H24         15.8326     2.2242    13.7891 H            1 DXC1002   0.0000
    53 H25         16.7586     2.6388    12.5095 H            1 DXC1002   0.0000
    54 H26         15.2872     3.3190    12.7072 H            1 DXC1002   0.0000
    55 H27          9.2693     2.2520    16.2897 H            1 DXC1002   0.0000
    56 H28         12.1422    -1.3964    13.8298 H            1 DXC1002   0.0000
    57 H29         15.5112    -1.8153     8.1298 H            1 DXC1002   0.0000
    58 H30         11.7610     2.7366    16.1348 H            1 DXC1002   0.0000
    59 H31         12.7918     3.1251    14.9293 H            1 DXC1002   0.0000
    60 H32         11.3095     3.8079    14.9880 H            1 DXC1002   0.0000
    61 H33          7.2396     1.8529    14.6166 H            1 DXC1002   0.0000
    62 H34          7.0824     2.2445    16.1941 H            1 DXC1002   0.0000
    63 H35          6.7638    -0.0481    16.7043 H            1 DXC1002   0.0000
    64 H36          6.8499    -0.3954    15.1110 H            1 DXC1002   0.0000
    65 H37          8.8637     0.2624    17.3880 H            1 DXC1002   0.0000
    66 H38          9.1501    -0.5622    16.0079 H            1 DXC1002   0.0000
    67 H39         10.3548     0.2773    16.7224 H            1 DXC1002   0.0000
@<TRIPOS>BOND
     1    1    2       1
     2    1    6       1
     3    1   21       1
     4    2    3       1
     5    3    4       1
     6    3    7       1
     7    4    5       1
     8    4   10       1
     9    4   18       1
    10    5    6       1
    11    7    8       1
    12    8    9       1
    13    9   10       1
    14    9   11       1
    15   10   14       1
    16   11   12       1
    17   11   15       1
    18   12   13       1
    19   12   17       1
    20   12   22       1
    21   13   14       1
    22   13   20       1
    23   15   16       1
    24   16   17       1
    25   17   19       1
    26   19   23       1
    27   19   28       1
    28   23   24       1
    29   24   25       1
    30   25   26      ar
    31   25   27      ar
    32    1   29       1
    33    2   30       1
    34    2   31       1
    35    3   32       1
    36    5   33       1
    37    5   34       1
    38    6   35       1
    39    6   36       1
    40    7   37       1
    41    7   38       1
    42    8   39       1
    43    8   40       1
    44    9   41       1
    45   10   42       1
    46   11   43       1
    47   13   44       1
    48   14   45       1
    49   14   46       1
    50   15   47       1
    51   15   48       1
    52   16   49       1
    53   16   50       1
    54   17   51       1
    55   18   52       1
    56   18   53       1
    57   18   54       1
    58   19   55       1
    59   20   56       1
    60   21   57       1
    61   22   58       1
    62   22   59       1
    63   22   60       1
    64   23   61       1
    65   23   62       1
    66   24   63       1
    67   24   64       1
    68   28   67       1
    69   28   65       1
    70   28   66       1
@<TRIPOS>SUBSTRUCTURE
     1 DXC1002     1 GROUP             4 A     DXC     0 **** DXC A1002
