@<TRIPOS>MOLECULE
4hm6_16Q_1_ligand
   19    19     1     0     0
SMALL
NO_CHARGES


@<TRIPOS>ATOM
     1 C9          13.2320    52.4140    82.5880 C.3          1 16Q503   0.0000
     2 C8          13.1470    53.4200    81.4950 C.3          1 16Q503   0.0000
     3 O7          13.2410    52.7660    80.2610 O.3          1 16Q503   0.0000
     4 C1          13.8180    51.5460    80.0830 C.ar         1 16Q503   0.0000
     5 C2          14.1340    51.1740    78.7900 C.ar         1 16Q503   0.0000
     6 C6          14.0370    50.7020    81.1390 C.ar         1 16Q503   0.0000
     7 C5          14.6300    49.4730    80.8930 C.ar         1 16Q503   0.0000
     8 C4          14.9590    49.0980    79.6120 C.ar         1 16Q503   0.0000
     9 C3          14.7250    49.9610    78.5660 C.ar         1 16Q503   0.0000
    10 H1          13.1653    52.8761    83.4723 H            1 16Q503   0.0000
    11 H2          12.4821    51.7587    82.4970 H            1 16Q503   0.0000
    12 H3          14.1057    51.9310    82.5293 H            1 16Q503   0.0000
    13 H4          13.8969    54.0755    81.5844 H            1 16Q503   0.0000
    14 H5          12.2733    53.9032    81.5520 H            1 16Q503   0.0000
    15 H6          13.9324    51.7860    78.0253 H            1 16Q503   0.0000
    16 H7          13.7750    50.9663    82.0672 H            1 16Q503   0.0000
    17 H8          14.8202    48.8535    81.6547 H            1 16Q503   0.0000
    18 H9          15.3670    48.2012    79.4409 H            1 16Q503   0.0000
    19 H10         14.9884    49.6999    77.6373 H            1 16Q503   0.0000
@<TRIPOS>BOND
     1    1    2       1
     2    2    3       1
     3    3    4       1
     4    4    5      ar
     5    4    6      ar
     6    5    9      ar
     7    6    7      ar
     8    7    8      ar
     9    8    9      ar
    10    1   10       1
    11    1   11       1
    12    1   12       1
    13    2   13       1
    14    2   14       1
    15    5   15       1
    16    6   16       1
    17    7   17       1
    18    8   18       1
    19    9   19       1
@<TRIPOS>SUBSTRUCTURE
     1 16Q503      1 GROUP             4 A     16Q     0 **** 16Q A 503
