@<TRIPOS>MOLECULE
2j83_BAT_2_ligand
   62    63     1     0     0
SMALL
NO_CHARGES


@<TRIPOS>ATOM
     1 C1          40.4910    35.7470   100.5380 C.3          1 BAT996   0.0000
     2 C2          41.2330    37.0040   100.9040 C.2          1 BAT996   0.0000
     3 C3          39.1500    36.1020    99.8900 C.3          1 BAT996   0.0000
     4 C4          36.8640    37.6310   100.0400 C.2          1 BAT996   0.0000
     5 C5          35.5630    37.1670   100.1070 C.2          1 BAT996   0.0000
     6 C6          34.8130    37.8910    99.2030 C.2          1 BAT996   0.0000
     7 C7          35.5450    38.8550    98.5100 C.2          1 BAT996   0.0000
     8 C8          41.3720    34.8370    99.6690 C.3          1 BAT996   0.0000
     9 C9          42.7330    34.5800   100.3350 C.3          1 BAT996   0.0000
    10 C10         43.7790    34.0520    99.3540 C.3          1 BAT996   0.0000
    11 C11         43.9720    32.5560    99.5170 C.3          1 BAT996   0.0000
    12 C12         45.1200    34.7480    99.5160 C.3          1 BAT996   0.0000
    13 C13         40.6660    33.5330    99.3970 C.2          1 BAT996   0.0000
    14 C14         39.5750    32.1280    97.7310 C.3          1 BAT996   0.0000
    15 C15         40.1910    30.7650    97.7380 C.2          1 BAT996   0.0000
    16 C16         39.8010    28.3720    98.1750 C.3          1 BAT996   0.0000
    17 C17         38.9980    32.3750    96.3390 C.3          1 BAT996   0.0000
    18 C18         38.0770    33.5600    96.4350 C.ar         1 BAT996   0.0000
    19 C19         36.7920    33.3930    96.9550 C.ar         1 BAT996   0.0000
    20 C20         35.9450    34.4880    97.0590 C.ar         1 BAT996   0.0000
    21 C21         36.3870    35.7400    96.6410 C.ar         1 BAT996   0.0000
    22 C22         37.6720    35.9010    96.1200 C.ar         1 BAT996   0.0000
    23 C23         38.5250    34.8080    96.0200 C.ar         1 BAT996   0.0000
    24 N1          41.5180    37.1410   102.1900 N.am         1 BAT996   0.0000
    25 N2          40.5060    33.1840    98.1210 N.am         1 BAT996   0.0000
    26 N3          39.4050    29.7800    98.1850 N.am         1 BAT996   0.0000
    27 O1          41.5510    37.8520   100.0760 O.2          1 BAT996   0.0000
    28 O2          42.1580    38.3040   102.5780 O.3          1 BAT996  -1.0000
    29 O3          40.2700    32.8330   100.3210 O.2          1 BAT996   0.0000
    30 O4          41.3370    30.6070    97.3360 O.2          1 BAT996   0.0000
    31 S1          38.1060    36.9430   101.0490 S.3          1 BAT996   0.0000
    32 S2          37.2490    38.9230    98.9370 S.3          1 BAT996   0.0000
    33 H1          40.2948    35.2553   101.3863 H            1 BAT996   0.0000
    34 H2          38.6977    35.2628    99.5880 H            1 BAT996   0.0000
    35 H3          39.3120    36.6956    99.1017 H            1 BAT996   0.0000
    36 H4          35.2264    36.4381   100.7032 H            1 BAT996   0.0000
    37 H5          33.8353    37.7387    99.0581 H            1 BAT996   0.0000
    38 H6          35.1342    39.4581    97.8262 H            1 BAT996   0.0000
    39 H7          41.5317    35.2960    98.7950 H            1 BAT996   0.0000
    40 H8          42.6102    33.9072   101.0646 H            1 BAT996   0.0000
    41 H9          43.0653    35.4385   100.7256 H            1 BAT996   0.0000
    42 H10         43.4495    34.2238    98.4256 H            1 BAT996   0.0000
    43 H11         44.6597    32.2357    98.8655 H            1 BAT996   0.0000
    44 H12         44.2779    32.3589   100.4484 H            1 BAT996   0.0000
    45 H13         43.1056    32.0874    99.3445 H            1 BAT996   0.0000
    46 H14         45.7720    34.3729    98.8570 H            1 BAT996   0.0000
    47 H15         45.0085    35.7284    99.3535 H            1 BAT996   0.0000
    48 H16         45.4620    34.6007   100.4441 H            1 BAT996   0.0000
    49 H17         38.8174    32.1278    98.3837 H            1 BAT996   0.0000
    50 H18         39.0617    27.8151    98.5537 H            1 BAT996   0.0000
    51 H19         39.9870    28.0847    97.2354 H            1 BAT996   0.0000
    52 H20         40.6250    28.2535    98.7291 H            1 BAT996   0.0000
    53 H21         38.4887    31.5707    96.0329 H            1 BAT996   0.0000
    54 H22         39.7363    32.5679    95.6927 H            1 BAT996   0.0000
    55 H23         36.4833    32.4891    97.2511 H            1 BAT996   0.0000
    56 H24         35.0236    34.3781    97.4317 H            1 BAT996   0.0000
    57 H25         35.7790    36.5306    96.7145 H            1 BAT996   0.0000
    58 H26         37.9792    36.8036    95.8184 H            1 BAT996   0.0000
    59 H27         39.4491    34.9185    95.6541 H            1 BAT996   0.0000
    60 H28         41.2800    36.4320   102.8539 H            1 BAT996   0.0000
    61 H29         41.0347    33.6552    97.4150 H            1 BAT996   0.0000
    62 H30         38.5023    30.0176    98.5437 H            1 BAT996   0.0000
@<TRIPOS>BOND
     1    1    2       1
     2    1    3       1
     3    1    8       1
     4    2   24      am
     5    2   27       2
     6    3   31       1
     7    4    5       2
     8    4   31       1
     9    4   32       1
    10    5    6       1
    11    6    7       2
    12    7   32       1
    13    8    9       1
    14    8   13       1
    15    9   10       1
    16   10   11       1
    17   10   12       1
    18   13   25      am
    19   13   29       2
    20   14   15       1
    21   14   17       1
    22   14   25       1
    23   15   26      am
    24   15   30       2
    25   16   26       1
    26   17   18       1
    27   18   19      ar
    28   18   23      ar
    29   19   20      ar
    30   20   21      ar
    31   21   22      ar
    32   22   23      ar
    33   24   28       1
    34    1   33       1
    35    3   34       1
    36    3   35       1
    37    5   36       1
    38    6   37       1
    39    7   38       1
    40    8   39       1
    41    9   40       1
    42    9   41       1
    43   10   42       1
    44   11   43       1
    45   11   44       1
    46   11   45       1
    47   12   46       1
    48   12   47       1
    49   12   48       1
    50   14   49       1
    51   16   50       1
    52   16   51       1
    53   16   52       1
    54   17   53       1
    55   17   54       1
    56   19   55       1
    57   20   56       1
    58   21   57       1
    59   22   58       1
    60   23   59       1
    61   24   60       1
    62   25   61       1
    63   26   62       1
@<TRIPOS>SUBSTRUCTURE
     1 BAT996      1 GROUP             4 B     BAT     0 **** BAT B 996
