@<TRIPOS>MOLECULE
4xyl_COA_1_ligand
   80    82     1     0     0
SMALL
NO_CHARGES


@<TRIPOS>ATOM
     1 N1A         32.1660    14.4580    92.4570 N.ar         1 COA502   0.0000
     2 C2A         31.8930    13.1870    92.1470 C.ar         1 COA502   0.0000
     3 N3A         31.6850    12.6430    90.9450 N.ar         1 COA502   0.0000
     4 C4A         31.7920    13.5610    89.9790 C.ar         1 COA502   0.0000
     5 C5A         32.0740    14.9040    90.1420 C.ar         1 COA502   0.0000
     6 C6A         32.2590    15.3640    91.4600 C.ar         1 COA502   0.0000
     7 N6A         32.4930    16.6370    91.7730 N.pl3        1 COA502   0.0000
     8 N7A         32.1270    15.5520    88.9160 N.2          1 COA502   0.0000
     9 C8A         31.8770    14.5940    88.0550 C.2          1 COA502   0.0000
    10 N9A         31.6630    13.3670    88.6230 N.pl3        1 COA502   0.0000
    11 C1B         31.3630    12.1110    87.9380 C.3          1 COA502   0.0000
    12 C2B         30.6740    12.2600    86.5820 C.3          1 COA502   0.0000
    13 O2B         29.2680    12.4090    86.7350 O.3          1 COA502   0.0000
    14 C3B         31.0270    10.9160    85.9440 C.3          1 COA502   0.0000
    15 O3B         30.1360     9.8780    86.4010 O.3          1 COA502   0.0000
    16 P3B         28.7940     9.4480    85.6240 P.3          1 COA502   0.0000
    17 O7A         29.0730     8.4420    84.5500 O.co2        1 COA502   0.0000
    18 O8A         27.8610     8.8930    86.6910 O.co2        1 COA502  -1.0000
    19 O9A         28.2200    10.7560    85.0620 O.co2        1 COA502  -1.0000
    20 C4B         32.4160    10.5980    86.5090 C.3          1 COA502   0.0000
    21 O4B         32.5780    11.4450    87.6710 O.3          1 COA502   0.0000
    22 C5B         33.5540    10.8260    85.5480 C.3          1 COA502   0.0000
    23 O5B         33.4060    12.1330    84.9610 O.3          1 COA502   0.0000
    24 P1A         33.3330    12.3320    83.3680 P.3          1 COA502   0.0000
    25 O1A         32.8000    13.6640    82.9990 O.co2        1 COA502   0.0000
    26 O2A         32.4890    11.2040    82.7910 O.co2        1 COA502  -1.0000
    27 O3A         34.8170    12.2000    82.8110 O.3          1 COA502   0.0000
    28 P2A         35.6470    11.0340    82.1170 P.3          1 COA502   0.0000
    29 O4A         35.4800     9.7510    82.8400 O.co2        1 COA502   0.0000
    30 O5A         35.1850    10.9120    80.6690 O.co2        1 COA502  -1.0000
    31 O6A         37.1140    11.6360    82.1200 O.3          1 COA502   0.0000
    32 CBP         39.2390    11.7210    83.2790 C.3          1 COA502   0.0000
    33 CCP         37.7270    11.8800    83.3970 C.3          1 COA502   0.0000
    34 CDP         39.8940    12.1040    84.6100 C.3          1 COA502   0.0000
    35 CEP         39.5560    10.2560    82.9530 C.3          1 COA502   0.0000
    36 CAP         39.7550    12.6470    82.1460 C.3          1 COA502   0.0000
    37 OAP         39.4040    13.9910    82.3990 O.3          1 COA502   0.0000
    38 C9P         41.2600    12.5240    81.9920 C.2          1 COA502   0.0000
    39 O9P         42.0020    13.3190    82.5600 O.2          1 COA502   0.0000
    40 N8P         41.7000    11.5340    81.2170 N.am         1 COA502   0.0000
    41 C7P         43.1130    11.2620    81.0120 C.3          1 COA502   0.0000
    42 C6P         43.7710    10.7260    82.2640 C.3          1 COA502   0.0000
    43 C5P         45.1530    10.1910    81.9830 C.2          1 COA502   0.0000
    44 O5P         45.4590     9.7950    80.8630 O.2          1 COA502   0.0000
    45 N4P         46.0100    10.1930    83.0000 N.am         1 COA502   0.0000
    46 C3P         47.4190     9.8610    82.8410 C.3          1 COA502   0.0000
    47 C2P         47.6170     8.4150    82.4320 C.3          1 COA502   0.0000
    48 S1P         49.3940     8.2590    82.1280 S.3          1 COA502   0.0000
    49 H2A         31.8367    12.5567    92.9213 H            1 COA502   0.0000
    50 H6A1        32.5656    17.3244    91.0503 H            1 COA502   0.0000
    51 H6A2        32.5961    16.9056    92.7307 H            1 COA502   0.0000
    52 H8A         31.8455    14.7472    87.0673 H            1 COA502   0.0000
    53 H1B         30.7982    11.5389    88.5327 H            1 COA502   0.0000
    54 H2B         31.0629    13.0199    86.0612 H            1 COA502   0.0000
    55 H7          28.8002    11.6638    86.2598 H            1 COA502   0.0000
    56 H3B         31.0409    10.9753    84.9459 H            1 COA502   0.0000
    57 H4B         32.4315     9.6425    86.8037 H            1 COA502   0.0000
    58 H5B1        33.5331    10.1301    84.8301 H            1 COA502   0.0000
    59 H5B2        34.4242    10.7735    86.0380 H            1 COA502   0.0000
    60 HCP1        37.3749    11.2249    84.0655 H            1 COA502   0.0000
    61 HCP2        37.5127    12.8097    83.6965 H            1 COA502   0.0000
    62 HDP1        40.8858    12.0006    84.5354 H            1 COA502   0.0000
    63 HDP2        39.6735    13.0545    84.8287 H            1 COA502   0.0000
    64 HDP3        39.5502    11.5068    85.3347 H            1 COA502   0.0000
    65 HEP1        40.5459    10.1390    82.8730 H            1 COA502   0.0000
    66 HEP2        39.2090     9.6691    83.6845 H            1 COA502   0.0000
    67 HEP3        39.1198    10.0049    82.0889 H            1 COA502   0.0000
    68 HAP         39.3259    12.3650    81.2879 H            1 COA502   0.0000
    69 H21         38.8329    14.3325    81.6526 H            1 COA502   0.0000
    70 H8P         41.0292    10.9528    80.7563 H            1 COA502   0.0000
    71 H7P1        43.5701    12.1102    80.7442 H            1 COA502   0.0000
    72 H7P2        43.2096    10.5862    80.2812 H            1 COA502   0.0000
    73 H6P1        43.2074     9.9884    82.6358 H            1 COA502   0.0000
    74 H6P2        43.8395    11.4640    82.9354 H            1 COA502   0.0000
    75 H4P         45.6732    10.4322    83.9107 H            1 COA502   0.0000
    76 H3P1        47.8881    10.0182    83.7100 H            1 COA502   0.0000
    77 H3P2        47.8131    10.4527    82.1377 H            1 COA502   0.0000
    78 H2P1        47.0984     8.2096    81.6020 H            1 COA502   0.0000
    79 H2P2        47.3298     7.7990    83.1656 H            1 COA502   0.0000
    80 H1P         49.6863     7.3246    82.3317 H            1 COA502   0.0000
@<TRIPOS>BOND
     1    1    2      ar
     2    1    6      ar
     3    2    3      ar
     4    3    4      ar
     5    4    5      ar
     6    4   10       1
     7    5    6      ar
     8    5    8       1
     9    6    7       1
    10    8    9       2
    11    9   10       1
    12   10   11       1
    13   11   12       1
    14   11   21       1
    15   12   13       1
    16   12   14       1
    17   14   15       1
    18   14   20       1
    19   15   16       1
    20   16   17      ar
    21   16   18      ar
    22   16   19      ar
    23   20   21       1
    24   20   22       1
    25   22   23       1
    26   23   24       1
    27   24   25      ar
    28   24   26      ar
    29   24   27       1
    30   27   28       1
    31   28   29      ar
    32   28   30      ar
    33   28   31       1
    34   31   33       1
    35   32   33       1
    36   32   34       1
    37   32   35       1
    38   32   36       1
    39   36   37       1
    40   36   38       1
    41   38   39       2
    42   38   40      am
    43   40   41       1
    44   41   42       1
    45   42   43       1
    46   43   44       2
    47   43   45      am
    48   45   46       1
    49   46   47       1
    50   47   48       1
    51    2   49       1
    52    7   50       1
    53    7   51       1
    54    9   52       1
    55   11   53       1
    56   12   54       1
    57   13   55       1
    58   14   56       1
    59   48   80       1
    60   47   79       1
    61   20   57       1
    62   22   58       1
    63   22   59       1
    64   47   78       1
    65   46   77       1
    66   33   60       1
    67   33   61       1
    68   34   62       1
    69   34   63       1
    70   34   64       1
    71   35   65       1
    72   35   66       1
    73   35   67       1
    74   36   68       1
    75   37   69       1
    76   40   70       1
    77   41   71       1
    78   41   72       1
    79   42   73       1
    80   42   74       1
    81   45   75       1
    82   46   76       1
@<TRIPOS>SUBSTRUCTURE
     1 COA502      1 GROUP             4 A     COA     0 **** COA A 502
