@<TRIPOS>MOLECULE
3bm1_FMN_1_ligand
   50    52     1     0     0
SMALL
NO_CHARGES


@<TRIPOS>ATOM
     1 N1          20.5490    -0.2920    19.3210 N.2          1 FMN3401   0.0000
     2 C2          21.0750    -0.1260    20.5910 C.2          1 FMN3401   0.0000
     3 O2          20.6120    -0.7280    21.5780 O.2          1 FMN3401   0.0000
     4 N3          22.1640     0.7430    20.7920 N.pl3        1 FMN3401   0.0000
     5 C4          22.7580     1.4730    19.7260 C.2          1 FMN3401   0.0000
     6 O4          23.7460     2.2330    20.0080 O.2          1 FMN3401   0.0000
     7 C4A         22.2220     1.3160    18.4040 C.2          1 FMN3401   0.0000
     8 N5          22.7410     1.9890    17.3540 N.2          1 FMN3401   0.0000
     9 C5A         22.2090     1.8330    16.0680 C.ar         1 FMN3401   0.0000
    10 C6          22.7640     2.5720    14.9440 C.ar         1 FMN3401   0.0000
    11 C7          22.2560     2.4570    13.6070 C.ar         1 FMN3401   0.0000
    12 C7M         22.8780     3.2530    12.5270 C.3          1 FMN3401   0.0000
    13 C8          21.1270     1.5450    13.3810 C.ar         1 FMN3401   0.0000
    14 C8M         20.5030     1.3410    11.9990 C.3          1 FMN3401   0.0000
    15 C9          20.5750     0.8200    14.4630 C.ar         1 FMN3401   0.0000
    16 C9A         21.0890     0.9380    15.8310 C.ar         1 FMN3401   0.0000
    17 N10         20.5450     0.2230    16.9670 N.pl3        1 FMN3401   0.0000
    18 C10         21.0870     0.3860    18.2790 C.2          1 FMN3401   0.0000
    19 C1'         19.3920    -0.6990    16.7530 C.3          1 FMN3401   0.0000
    20 C2'         19.7030    -2.2000    16.9070 C.3          1 FMN3401   0.0000
    21 O2'         20.7350    -2.5840    15.9670 O.3          1 FMN3401   0.0000
    22 C3'         18.4770    -3.0810    16.6330 C.3          1 FMN3401   0.0000
    23 O3'         18.0120    -2.8270    15.2680 O.3          1 FMN3401   0.0000
    24 C4'         17.2890    -2.8030    17.6490 C.3          1 FMN3401   0.0000
    25 O4'         17.8200    -3.0910    18.9820 O.3          1 FMN3401   0.0000
    26 C5'         16.0170    -3.6150    17.4340 C.3          1 FMN3401   0.0000
    27 O5'         16.2730    -5.0150    17.3850 O.3          1 FMN3401   0.0000
    28 P           15.9970    -5.8340    15.9330 P.3          1 FMN3401   0.0000
    29 O1P         17.1240    -5.4370    15.0110 O.co2        1 FMN3401   0.0000
    30 O2P         16.0150    -7.2720    16.3740 O.co2        1 FMN3401  -1.0000
    31 O3P         14.6280    -5.3920    15.3760 O.co2        1 FMN3401  -1.0000
    32 H1          22.5323     0.8506    21.7155 H            1 FMN3401   0.0000
    33 H2          23.5341     3.1877    15.1109 H            1 FMN3401   0.0000
    34 H7M1        22.4137     3.0618    11.6622 H            1 FMN3401   0.0000
    35 H7M2        22.7964     4.2264    12.7410 H            1 FMN3401   0.0000
    36 H7M3        23.8445     3.0091    12.4475 H            1 FMN3401   0.0000
    37 H8M1        19.7528     0.6832    12.0658 H            1 FMN3401   0.0000
    38 H8M2        20.1519     2.2137    11.6597 H            1 FMN3401   0.0000
    39 H8M3        21.1965     0.9928    11.3683 H            1 FMN3401   0.0000
    40 H9          19.8063     0.2047    14.2885 H            1 FMN3401   0.0000
    41 H1'1        19.0465    -0.5498    15.8265 H            1 FMN3401   0.0000
    42 H1'2        18.6816    -0.4623    17.4158 H            1 FMN3401   0.0000
    43 H2'         20.0278    -2.3725    17.8369 H            1 FMN3401   0.0000
    44 H13         21.6327    -2.4698    16.3925 H            1 FMN3401   0.0000
    45 H3'         18.7469    -4.0410    16.7079 H            1 FMN3401   0.0000
    46 H15         17.5870    -3.6545    14.9012 H            1 FMN3401   0.0000
    47 H4'         17.0555    -1.8317    17.6046 H            1 FMN3401   0.0000
    48 H17         18.7737    -3.3819    18.9052 H            1 FMN3401   0.0000
    49 H5'1        15.5979    -3.3341    16.5706 H            1 FMN3401   0.0000
    50 H5'2        15.3856    -3.4294    18.1869 H            1 FMN3401   0.0000
@<TRIPOS>BOND
     1    1    2       1
     2    1   18       2
     3    2    3       2
     4    2    4       1
     5    4    5       1
     6    5    6       2
     7    5    7       1
     8    7    8       2
     9    7   18       1
    10    8    9       1
    11    9   10      ar
    12    9   16      ar
    13   10   11      ar
    14   11   12       1
    15   11   13      ar
    16   13   14       1
    17   13   15      ar
    18   15   16      ar
    19   16   17       1
    20   17   18       1
    21   17   19       1
    22   19   20       1
    23   20   21       1
    24   20   22       1
    25   22   23       1
    26   22   24       1
    27   24   25       1
    28   24   26       1
    29   26   27       1
    30   27   28       1
    31   28   29      ar
    32   28   30      ar
    33   28   31      ar
    34    4   32       1
    35   10   33       1
    36   12   34       1
    37   12   35       1
    38   12   36       1
    39   14   37       1
    40   14   38       1
    41   14   39       1
    42   15   40       1
    43   19   41       1
    44   19   42       1
    45   20   43       1
    46   21   44       1
    47   22   45       1
    48   23   46       1
    49   24   47       1
    50   25   48       1
    51   26   49       1
    52   26   50       1
@<TRIPOS>SUBSTRUCTURE
     1 FMN3401     1 GROUP             4 A     FMN     0 **** FMN A3401
