@<TRIPOS>MOLECULE
2pa7_TYD_1_ligand
   38    39     1     0     0
SMALL
NO_CHARGES


@<TRIPOS>ATOM
     1 PA          -8.3540    14.1750    10.6580 P.3          1 TYD141   0.0000
     2 O1A         -7.2060    14.7710    11.3840 O.co2        1 TYD141   0.0000
     3 O2A         -9.4170    15.1400    10.3030 O.co2        1 TYD141  -1.0000
     4 O3A         -8.8810    12.9680    11.6330 O.3          1 TYD141   0.0000
     5 PB         -10.0970    12.8290    12.5680 P.3          1 TYD141   0.0000
     6 O1B        -11.3230    12.6180    11.7080 O.co2        1 TYD141   0.0000
     7 O2B        -10.2290    14.0620    13.3860 O.co2        1 TYD141  -1.0000
     8 O3B         -9.8290    11.6770    13.4540 O.co2        1 TYD141  -1.0000
     9 O5'         -8.1070    13.4590     9.2900 O.3          1 TYD141   0.0000
    10 C5'         -9.2420    13.7280     8.4550 C.3          1 TYD141   0.0000
    11 C4'         -9.1380    13.0040     7.1650 C.3          1 TYD141   0.0000
    12 O4'         -8.2170    13.7810     6.3620 O.3          1 TYD141   0.0000
    13 C3'         -8.5980    11.5830     7.2750 C.3          1 TYD141   0.0000
    14 O3'         -8.9650    10.6930     6.1920 O.3          1 TYD141   0.0000
    15 C2'         -7.0970    11.8850     7.2210 C.3          1 TYD141   0.0000
    16 C1'         -7.0490    13.0380     6.2310 C.3          1 TYD141   0.0000
    17 N1          -5.9030    13.9240     6.3800 N.pl3        1 TYD141   0.0000
    18 C2          -5.0440    13.9590     5.3160 C.2          1 TYD141   0.0000
    19 O2          -5.2040    13.2900     4.3120 O.2          1 TYD141   0.0000
    20 N3          -3.9770    14.8070     5.4570 N.pl3        1 TYD141   0.0000
    21 C4          -3.7120    15.6050     6.5630 C.2          1 TYD141   0.0000
    22 O4          -2.7050    16.2950     6.5450 O.2          1 TYD141   0.0000
    23 C5          -4.6620    15.4860     7.6170 C.2          1 TYD141   0.0000
    24 C5M         -4.4900    16.3080     8.8930 C.3          1 TYD141   0.0000
    25 C6          -5.6980    14.6870     7.5130 C.2          1 TYD141   0.0000
    26 H5'1        -9.2900    14.7106     8.2753 H            1 TYD141   0.0000
    27 H5'2       -10.0727    13.4347     8.9283 H            1 TYD141   0.0000
    28 H4'        -10.0336    12.9861     6.7204 H            1 TYD141   0.0000
    29 H3'         -8.8436    11.1817     8.1574 H            1 TYD141   0.0000
    30 H5          -8.5662     9.7902     6.3528 H            1 TYD141   0.0000
    31 H2'1        -6.5786    11.0973     6.8883 H            1 TYD141   0.0000
    32 H2'2        -6.7481    12.1594     8.1171 H            1 TYD141   0.0000
    33 H1'         -7.0269    12.6541     5.3079 H            1 TYD141   0.0000
    34 H9          -3.3309    14.8559     4.6953 H            1 TYD141   0.0000
    35 H5M1        -5.2389    16.1050     9.5238 H            1 TYD141   0.0000
    36 H5M2        -3.6184    16.0753     9.3245 H            1 TYD141   0.0000
    37 H5M3        -4.5001    17.2819     8.6660 H            1 TYD141   0.0000
    38 H13         -6.3511    14.6295     8.2681 H            1 TYD141   0.0000
@<TRIPOS>BOND
     1    1    2      ar
     2    1    3      ar
     3    1    4       1
     4    1    9       1
     5    4    5       1
     6    5    6      ar
     7    5    7      ar
     8    5    8      ar
     9    9   10       1
    10   10   11       1
    11   11   12       1
    12   11   13       1
    13   12   16       1
    14   13   14       1
    15   13   15       1
    16   15   16       1
    17   16   17       1
    18   17   18       1
    19   17   25       1
    20   18   19       2
    21   18   20       1
    22   20   21       1
    23   21   22       2
    24   21   23       1
    25   23   24       1
    26   23   25       2
    27   25   38       1
    28   24   37       1
    29   24   36       1
    30   10   26       1
    31   10   27       1
    32   11   28       1
    33   13   29       1
    34   14   30       1
    35   15   31       1
    36   15   32       1
    37   16   33       1
    38   20   34       1
    39   24   35       1
@<TRIPOS>SUBSTRUCTURE
     1 TYD141      1 GROUP             4 A     TYD     0 **** TYD A 141
