@<TRIPOS>MOLECULE
1t13_INI_4_ligand
   34    34     1     0     0
SMALL
NO_CHARGES


@<TRIPOS>ATOM
     1 N1          69.0750    73.2230    14.1100 N.pl3        1 INI204  -1.0000
     2 C2          70.0590    72.9630    13.1680 C.2          1 INI204   0.0000
     3 O2          69.6700    72.4760    12.1120 O.2          1 INI204   0.0000
     4 N3          71.3530    73.2770    13.5070 N.pl3        1 INI204   0.0000
     5 C4          71.7620    73.8330    14.7190 C.2          1 INI204   0.0000
     6 O4          73.0040    74.0340    14.8020 O.2          1 INI204   0.0000
     7 C5          70.6480    74.1240    15.7830 C.2          1 INI204   0.0000
     8 N5          71.0690    74.7090    17.0620 N.2          1 INI204   1.0000
     9 O51         72.2150    74.9550    17.2880 O.co2        1 INI204   0.0000
    10 O52         70.2320    74.9460    17.9090 O.co2        1 INI204  -1.0000
    11 C6          69.2560    73.7780    15.3890 C.2          1 INI204   0.0000
    12 N7          68.0640    73.9450    16.1450 N.pl3        1 INI204   0.0000
    13 C8          67.6200    72.7320    16.8740 C.3          1 INI204   0.0000
    14 C9          66.2600    72.1220    16.3680 C.3          1 INI204   0.0000
    15 O9          66.5660    71.7140    15.0540 O.3          1 INI204   0.0000
    16 C10         64.9320    73.0300    16.1910 C.3          1 INI204   0.0000
    17 O10         65.1770    74.0940    15.3250 O.3          1 INI204   0.0000
    18 C11         64.1900    73.7310    17.5530 C.3          1 INI204   0.0000
    19 O11         65.0570    73.2320    18.6280 O.3          1 INI204   0.0000
    20 C12         62.7810    73.3400    18.1950 C.3          1 INI204   0.0000
    21 O12         62.4750    72.0630    17.7190 O.3          1 INI204   0.0000
    22 H1          72.0620    73.0910    12.8267 H            1 INI204   0.0000
    23 H2          67.5648    74.8107    16.1824 H            1 INI204   0.0000
    24 H3          67.5147    72.9699    17.8396 H            1 INI204   0.0000
    25 H4          68.3294    72.0338    16.7782 H            1 INI204   0.0000
    26 H5          66.0365    71.3172    16.9179 H            1 INI204   0.0000
    27 H6          67.2733    72.3112    14.6757 H            1 INI204   0.0000
    28 H7          64.2436    72.4527    15.7520 H            1 INI204   0.0000
    29 H8          64.5599    74.0341    14.5404 H            1 INI204   0.0000
    30 H9          64.2664    74.7266    17.4985 H            1 INI204   0.0000
    31 H10         64.7285    73.5756    19.5078 H            1 INI204   0.0000
    32 H11         62.0783    73.9928    17.9119 H            1 INI204   0.0000
    33 H12         62.8455    73.3315    19.1929 H            1 INI204   0.0000
    34 H13         61.9591    72.1400    16.8659 H            1 INI204   0.0000
@<TRIPOS>BOND
     1    1    2       1
     2    1   11       1
     3    2    3       2
     4    2    4       1
     5    4    5       1
     6    5    6       2
     7    5    7       1
     8    7    8       1
     9    7   11       2
    10    8    9      ar
    11    8   10      ar
    12   11   12       1
    13   12   13       1
    14   13   14       1
    15   14   15       1
    16   14   16       1
    17   16   17       1
    18   16   18       1
    19   18   19       1
    20   18   20       1
    21   20   21       1
    22   21   34       1
    23    4   22       1
    24   12   23       1
    25   13   24       1
    26   13   25       1
    27   14   26       1
    28   15   27       1
    29   16   28       1
    30   17   29       1
    31   18   30       1
    32   19   31       1
    33   20   32       1
    34   20   33       1
@<TRIPOS>SUBSTRUCTURE
     1 INI204      1 GROUP             4 D     INI     0 **** INI D 204
