@<TRIPOS>MOLECULE
3bxz_ADP_2_ligand
   39    41     1     0     0
SMALL
NO_CHARGES


@<TRIPOS>ATOM
     1 PB          16.9460    31.0760    50.1130 P.3          1 ADP902   0.0000
     2 O1B         17.6270    30.3530    48.9820 O.co2        1 ADP902   0.0000
     3 O2B         18.0260    31.3990    51.2810 O.co2        1 ADP902  -1.0000
     4 O3B         16.3150    32.3190    49.5690 O.co2        1 ADP902  -1.0000
     5 PA          15.7020    29.2640    51.9470 P.3          1 ADP902   0.0000
     6 O1A         16.9350    29.2460    52.7680 O.co2        1 ADP902   0.0000
     7 O2A         15.3430    27.9590    51.4400 O.co2        1 ADP902  -1.0000
     8 O3A         15.8380    30.1910    50.7150 O.3          1 ADP902   0.0000
     9 O5'         14.4820    29.8350    52.6650 O.3          1 ADP902   0.0000
    10 C5'         14.4630    31.0780    53.3370 C.3          1 ADP902   0.0000
    11 C4'         13.7500    30.7690    54.6870 C.3          1 ADP902   0.0000
    12 O4'         12.5770    31.5740    54.7780 O.3          1 ADP902   0.0000
    13 C3'         13.2570    29.3010    54.8520 C.3          1 ADP902   0.0000
    14 O3'         13.8410    28.6760    55.9800 O.3          1 ADP902   0.0000
    15 C2'         11.7570    29.2950    55.0220 C.3          1 ADP902   0.0000
    16 O2'         11.3790    28.6530    56.2480 O.3          1 ADP902   0.0000
    17 C1'         11.3860    30.7440    54.9780 C.3          1 ADP902   0.0000
    18 N9          10.3300    31.0880    53.9430 N.pl3        1 ADP902   0.0000
    19 C8          10.4950    31.1900    52.5820 C.2          1 ADP902   0.0000
    20 N7           9.3060    31.5350    52.0200 N.2          1 ADP902   0.0000
    21 C5           8.3740    31.6480    52.9810 C.ar         1 ADP902   0.0000
    22 C6           6.9960    31.9920    53.0570 C.ar         1 ADP902   0.0000
    23 N6           6.2770    32.2880    51.9540 N.pl3        1 ADP902   0.0000
    24 N1           6.3610    32.0050    54.3070 N.ar         1 ADP902   0.0000
    25 C2           7.0270    31.7160    55.4740 C.ar         1 ADP902   0.0000
    26 N3           8.3480    31.3980    55.4230 N.ar         1 ADP902   0.0000
    27 C4           9.0570    31.3590    54.2220 C.ar         1 ADP902   0.0000
    28 H5'1        13.9504    31.7575    52.8122 H            1 ADP902   0.0000
    29 H5'2        15.3928    31.4106    53.4946 H            1 ADP902   0.0000
    30 H4'         14.3642    30.9964    55.4427 H            1 ADP902   0.0000
    31 H3'         13.4950    28.7820    54.0310 H            1 ADP902   0.0000
    32 H5          13.1214    28.3935    56.6144 H            1 ADP902   0.0000
    33 H2'         11.3350    28.8182    54.2509 H            1 ADP902   0.0000
    34 H7          10.7959    27.8661    56.0462 H            1 ADP902   0.0000
    35 H1'         11.0091    30.9795    55.8738 H            1 ADP902   0.0000
    36 H9          11.3497    31.0357    52.0864 H            1 ADP902   0.0000
    37 H10          5.3094    32.5265    52.0370 H            1 ADP902   0.0000
    38 H11          6.7118    32.2688    51.0537 H            1 ADP902   0.0000
    39 H12          6.5457    31.7393    56.3503 H            1 ADP902   0.0000
@<TRIPOS>BOND
     1    1    2      ar
     2    1    3      ar
     3    1    4      ar
     4    1    8       1
     5    5    6      ar
     6    5    7      ar
     7    5    8       1
     8    5    9       1
     9    9   10       1
    10   10   11       1
    11   11   12       1
    12   11   13       1
    13   12   17       1
    14   13   14       1
    15   13   15       1
    16   15   16       1
    17   15   17       1
    18   17   18       1
    19   18   19       1
    20   18   27       1
    21   19   20       2
    22   20   21       1
    23   21   22      ar
    24   21   27      ar
    25   22   23       1
    26   22   24      ar
    27   24   25      ar
    28   25   26      ar
    29   26   27      ar
    30   25   39       1
    31   23   38       1
    32   23   37       1
    33   10   28       1
    34   10   29       1
    35   11   30       1
    36   13   31       1
    37   14   32       1
    38   15   33       1
    39   16   34       1
    40   17   35       1
    41   19   36       1
@<TRIPOS>SUBSTRUCTURE
     1 ADP902      1 GROUP             4 B     ADP     0 **** ADP B 902
