@<TRIPOS>MOLECULE
5flj_QUE_6_ligand
   31    33     1     0     0
SMALL
NO_CHARGES


@<TRIPOS>ATOM
     1 C1         125.5850    45.8040    15.8440 C.ar         1 QUE301   0.0000
     2 C2         125.2880    45.0710    16.9840 C.ar         1 QUE301   0.0000
     3 C3         124.2980    45.5070    17.8580 C.ar         1 QUE301   0.0000
     4 C4         123.5970    46.6770    17.5960 C.ar         1 QUE301   0.0000
     5 C5         123.8970    47.4170    16.4540 C.ar         1 QUE301   0.0000
     6 C6         124.8860    46.9720    15.5730 C.ar         1 QUE301   0.0000
     7 C9         124.0190    44.7700    18.9960 C.2          1 QUE301   0.0000
     8 C10        122.9580    45.2280    19.9280 C.2          1 QUE301   0.0000
     9 C11        122.2690    46.4870    19.6070 C.2          1 QUE301   0.0000
    10 C14        121.0860    46.9920    20.3000 C.ar         1 QUE301   0.0000
    11 C15        120.4270    48.1000    19.7490 C.ar         1 QUE301   0.0000
    12 C16        119.2980    48.6540    20.3430 C.ar         1 QUE301   0.0000
    13 C17        118.8240    48.0820    21.5250 C.ar         1 QUE301   0.0000
    14 C18        119.4630    46.9910    22.0750 C.ar         1 QUE301   0.0000
    15 C19        120.5990    46.4340    21.4800 C.ar         1 QUE301   0.0000
    16 O12        122.6230    47.1300    18.4500 O.2          1 QUE301   0.0000
    17 O13        124.6540    43.7130    19.2370 O.2          1 QUE301   0.0000
    18 O23        118.9630    46.4700    23.2190 O.3          1 QUE301  -1.0000
    19 O24        117.7270    48.5820    22.1380 O.3          1 QUE301   0.0000
    20 O27        122.7830    44.4790    20.9140 O.3          1 QUE301   0.0000
    21 O29        125.1840    47.6850    14.4480 O.3          1 QUE301   0.0000
    22 O30        125.9640    43.9200    17.2510 O.3          1 QUE301   0.0000
    23 H1         126.3007    45.4916    15.2194 H            1 QUE301   0.0000
    24 H2         123.4045    48.2665    16.2650 H            1 QUE301   0.0000
    25 H3         120.7789    48.5037    18.9045 H            1 QUE301   0.0000
    26 H4         118.8376    49.4418    19.9339 H            1 QUE301   0.0000
    27 H5         121.0551    45.6469    21.8952 H            1 QUE301   0.0000
    28 H6         117.3941    48.1663    22.9844 H            1 QUE301   0.0000
    29 H7         122.0889    44.7058    21.5972 H            1 QUE301   0.0000
    30 H8         125.9002    47.3645    13.8280 H            1 QUE301   0.0000
    31 H9         125.7487    43.3929    18.0731 H            1 QUE301   0.0000
@<TRIPOS>BOND
     1    1    2      ar
     2    1    6      ar
     3    2    3      ar
     4    2   22       1
     5    3    4      ar
     6    3    7       1
     7    4    5      ar
     8    4   16       1
     9    5    6      ar
    10    6   21       1
    11    7    8       1
    12    7   17       2
    13    8    9       2
    14    8   20       1
    15    9   10       1
    16    9   16       1
    17   10   11      ar
    18   10   15      ar
    19   11   12      ar
    20   12   13      ar
    21   13   14      ar
    22   13   19       1
    23   14   15      ar
    24   14   18       1
    25    1   23       1
    26    5   24       1
    27   11   25       1
    28   12   26       1
    29   15   27       1
    30   22   31       1
    31   19   28       1
    32   20   29       1
    33   21   30       1
@<TRIPOS>SUBSTRUCTURE
     1 QUE301      1 GROUP             4 F     QUE     0 **** QUE F 301
