@<TRIPOS>MOLECULE
5ayz_NCN_11_ligand
   34    35     1     0     0
SMALL
NO_CHARGES


@<TRIPOS>ATOM
     1 P          -14.9610     4.1520   -29.3630 P.3          1 NCN401   0.0000
     2 O1P        -13.9120     4.9230   -30.1380 O.co2        1 NCN401   0.0000
     3 O2P        -15.5870     2.9780   -30.0760 O.co2        1 NCN401  -1.0000
     4 O3P        -16.0490     5.0780   -28.8720 O.co2        1 NCN401  -1.0000
     5 O5'        -14.2680     3.7250   -28.0040 O.3          1 NCN401   0.0000
     6 C5'        -13.6760     2.4520   -27.8470 C.3          1 NCN401   0.0000
     7 C4'        -12.6580     2.4650   -26.7370 C.3          1 NCN401   0.0000
     8 O4'        -13.2360     1.8620   -25.5490 O.3          1 NCN401   0.0000
     9 C3'        -11.3750     1.6890   -27.0530 C.3          1 NCN401   0.0000
    10 O3'        -10.2480     2.5410   -26.8740 O.3          1 NCN401   0.0000
    11 C2'        -11.3520     0.5510   -26.0210 C.3          1 NCN401   0.0000
    12 O2'        -10.0730     0.2510   -25.5270 O.3          1 NCN401   0.0000
    13 C1'        -12.2590     1.0720   -24.9090 C.3          1 NCN401   0.0000
    14 N1         -12.9280    -0.0020   -24.1520 N.ar         1 NCN401   1.0000
    15 C6         -13.5630    -1.0150   -24.8040 C.ar         1 NCN401   0.0000
    16 C5         -14.1860    -2.0530   -24.1120 C.ar         1 NCN401   0.0000
    17 C4         -14.1530    -2.0550   -22.7550 C.ar         1 NCN401   0.0000
    18 C3         -13.5120    -1.0560   -22.0880 C.ar         1 NCN401   0.0000
    19 C2         -12.8880    -0.0240   -22.7960 C.ar         1 NCN401   0.0000
    20 C7         -13.4920    -1.0680   -20.5520 C.2          1 NCN401   0.0000
    21 O7         -12.7170    -0.3050   -19.8780 O.co2        1 NCN401   0.0000
    22 O8         -14.2810    -1.8560   -19.9610 O.co2        1 NCN401  -1.0000
    23 H5'1       -13.2254     2.1930   -28.7013 H            1 NCN401   0.0000
    24 H5'2       -14.3882     1.7844   -27.6301 H            1 NCN401   0.0000
    25 H4'        -12.4178     3.4138   -26.5318 H            1 NCN401   0.0000
    26 H3'        -11.4004     1.3242   -27.9837 H            1 NCN401   0.0000
    27 H5          -9.5176     2.2631   -27.4979 H            1 NCN401   0.0000
    28 H2'        -11.7555    -0.2712   -26.4225 H            1 NCN401   0.0000
    29 H7         -10.1382    -0.4951   -24.8644 H            1 NCN401   0.0000
    30 H1'        -11.7267     1.6412   -24.2824 H            1 NCN401   0.0000
    31 H9         -13.5830    -1.0145   -25.8038 H            1 NCN401   0.0000
    32 H10        -14.6508    -2.7860   -24.6087 H            1 NCN401   0.0000
    33 H11        -14.5995    -2.7903   -22.2451 H            1 NCN401   0.0000
    34 H12        -12.4100     0.7012   -22.3005 H            1 NCN401   0.0000
@<TRIPOS>BOND
     1    1    2      ar
     2    1    3      ar
     3    1    4      ar
     4    1    5       1
     5    5    6       1
     6    6    7       1
     7    7    8       1
     8    7    9       1
     9    8   13       1
    10    9   10       1
    11    9   11       1
    12   11   12       1
    13   11   13       1
    14   13   14       1
    15   14   15      ar
    16   14   19      ar
    17   15   16      ar
    18   16   17      ar
    19   17   18      ar
    20   18   19      ar
    21   18   20       1
    22   20   21      ar
    23   20   22      ar
    24   17   33       1
    25   19   34       1
    26    6   23       1
    27    6   24       1
    28    7   25       1
    29    9   26       1
    30   10   27       1
    31   11   28       1
    32   12   29       1
    33   13   30       1
    34   15   31       1
    35   16   32       1
@<TRIPOS>SUBSTRUCTURE
     1 NCN401      1 GROUP             4 K     NCN     0 **** NCN K 401
