@<TRIPOS>MOLECULE
./coach420/2jgv/ligand.pdb
 27 29 0 0 0
SMALL
GASTEIGER

@<TRIPOS>ATOM
      1  PB        71.5660   35.7800    3.7890 P.3   1311  ADP1311     0.5373
      2  O1B       71.0110   37.0590    3.2080 O.2   1311  ADP1311    -0.2221
      3  O2B       70.6050   34.9990    4.6620 O.3   1311  ADP1311    -0.1143
      4  O3B       72.9550   35.9270    4.3690 O.3   1311  ADP1311    -0.1143
      5  PA        70.6310   34.6710    1.3500 P.3   1311  ADP1311     0.2231
      6  O1A       70.9060   35.7190    0.2990 O.2   1311  ADP1311    -0.5169
      7  O2A       69.2660   34.5960    1.9990 O.3   1311  ADP1311    -0.4370
      8  O3A       71.7550   34.8160    2.5040 O.3   1311  ADP1311    -0.2261
      9  O5'       70.9720   33.2230    0.7410 O.3   1311  ADP1311    -0.3111
     10  C5'       72.0770   33.0420   -0.1340 C.3   1311  ADP1311     0.1813
     11  C4'       72.0960   31.5920   -0.5940 C.3   1311  ADP1311     0.1801
     12  O4'       72.2290   30.7140    0.5310 O.3   1311  ADP1311    -0.3306
     13  C3'       70.8060   31.1850   -1.2940 C.3   1311  ADP1311     0.2161
     14  O3'       70.8820   31.3840   -2.7070 O.3   1311  ADP1311    -0.2175
     15  C2'       70.6550   29.7210   -0.9420 C.3   1311  ADP1311     0.2337
     16  O2'       71.3530   28.9020   -1.8850 O.3   1311  ADP1311    -0.2155
     17  C1'       71.3270   29.6040    0.4160 C.3   1311  ADP1311     0.2409
     18  N9        70.2820   29.6500    1.4710 N.ar  1311  ADP1311    -0.2693
     19  C8        70.0620   30.6560    2.3430 C.ar  1311  ADP1311     0.1816
     20  N7        69.0220   30.3760    3.1680 N.ar  1311  ADP1311    -0.2193
     21  C5        68.5530   29.1620    2.8200 C.ar  1311  ADP1311     0.1518
     22  C6        67.4660   28.2570    3.2750 C.ar  1311  ADP1311     0.1919
     23  N6        66.6510   28.6100    4.3030 N.pl3 1311  ADP1311    -0.1054
     24  N1        67.3160   27.0700    2.6320 N.ar  1311  ADP1311    -0.2040
     25  C2        68.1150   26.7020    1.6120 C.ar  1311  ADP1311     0.2016
     26  N3        69.1210   27.4700    1.1510 N.ar  1311  ADP1311    -0.2048
     27  C4        69.3860   28.6880    1.7000 C.ar  1311  ADP1311     0.1692
@<TRIPOS>BOND
     1     1     8    1
     2     1     2    2
     3     1     4    1
     4     1     3    1
     5     5     6    2
     6     5     9    1
     7     5     7    1
     8     5     8    1
     9     9    10    1
    10    10    11    1
    11    11    13    1
    12    11    12    1
    13    12    17    1
    14    13    14    1
    15    13    15    1
    16    15    16    1
    17    15    17    1
    18    17    18    1
    19    18    27   ar
    20    18    19   ar
    21    19    20   ar
    22    20    21   ar
    23    21    27   ar
    24    21    22   ar
    25    22    24   ar
    26    22    23    1
    27    24    25   ar
    28    25    26   ar
    29    26    27   ar
