@<TRIPOS>MOLECULE
2npn_SAM_1_ligand
   50    52     1     0     0
SMALL
NO_CHARGES


@<TRIPOS>ATOM
     1 N           60.8410    34.0390    31.3940 N.4          1 SAM4633   1.0000
     2 CA          60.9690    33.0570    32.5130 C.3          1 SAM4633   0.0000
     3 C           60.8100    33.7290    33.8640 C.2          1 SAM4633   0.0000
     4 O           60.8780    33.0260    34.9080 O.co2        1 SAM4633   0.0000
     5 OXT         60.5710    34.9520    33.9130 O.co2        1 SAM4633  -1.0000
     6 CB          62.3110    32.3080    32.4220 C.3          1 SAM4633   0.0000
     7 CG          62.4280    31.3850    31.2080 C.3          1 SAM4633   0.0000
     8 SD          63.9470    30.3750    31.1170 S.3          1 SAM4633   1.0000
     9 CE          63.6090    29.6400    29.4910 C.3          1 SAM4633   0.0000
    10 C5'         63.6490    28.8310    32.0470 C.3          1 SAM4633   0.0000
    11 C4'         64.3010    28.7970    33.4400 C.3          1 SAM4633   0.0000
    12 O4'         63.5060    29.5080    34.3300 O.3          1 SAM4633   0.0000
    13 C3'         64.4210    27.4090    34.0710 C.3          1 SAM4633   0.0000
    14 O3'         65.5550    26.7100    33.6230 O.3          1 SAM4633   0.0000
    15 C2'         64.4630    27.6990    35.5470 C.3          1 SAM4633   0.0000
    16 O2'         65.7330    28.2240    35.8930 O.3          1 SAM4633   0.0000
    17 C1'         63.4380    28.8130    35.5780 C.3          1 SAM4633   0.0000
    18 N9          62.0630    28.3290    35.8330 N.pl3        1 SAM4633   0.0000
    19 C8          60.9640    28.5800    35.0270 C.2          1 SAM4633   0.0000
    20 N7          59.8590    28.0760    35.5830 N.2          1 SAM4633   0.0000
    21 C5          60.2260    27.5350    36.7830 C.ar         1 SAM4633   0.0000
    22 C6          59.5040    26.9390    37.8070 C.ar         1 SAM4633   0.0000
    23 N6          58.1590    26.7660    37.7360 N.pl3        1 SAM4633   0.0000
    24 N1          60.1820    26.4940    38.9360 N.ar         1 SAM4633   0.0000
    25 C2          61.5400    26.7180    39.0580 C.ar         1 SAM4633   0.0000
    26 N3          62.2560    27.3120    38.0550 N.ar         1 SAM4633   0.0000
    27 C4          61.6170    27.7420    36.9390 C.ar         1 SAM4633   0.0000
    28 H1          61.7416    34.4149    31.1757 H            1 SAM4633   0.0000
    29 H2          60.4674    33.5794    30.5883 H            1 SAM4633   0.0000
    30 HA          60.2352    32.3846    32.4165 H            1 SAM4633   0.0000
    31 HB1         62.4193    31.7556    33.2485 H            1 SAM4633   0.0000
    32 HB2         63.0459    32.9845    32.3745 H            1 SAM4633   0.0000
    33 HG1         62.3883    31.9533    30.3861 H            1 SAM4633   0.0000
    34 HG2         61.6460    30.7618    31.2205 H            1 SAM4633   0.0000
    35 HE1         64.3563    29.0240    29.2418 H            1 SAM4633   0.0000
    36 HE2         62.7520    29.1261    29.5291 H            1 SAM4633   0.0000
    37 HE3         63.5326    30.3652    28.8067 H            1 SAM4633   0.0000
    38 H5'1        64.0121    28.0680    31.5123 H            1 SAM4633   0.0000
    39 H5'2        62.6618    28.7188    32.1602 H            1 SAM4633   0.0000
    40 H4'         65.2061    29.2195    33.3931 H            1 SAM4633   0.0000
    41 H3'         63.6002    26.8777    33.8611 H            1 SAM4633   0.0000
    42 H15         65.3192    26.1789    32.8092 H            1 SAM4633   0.0000
    43 H2'         64.2009    26.9126    36.1063 H            1 SAM4633   0.0000
    44 H17         66.1692    27.6256    36.5650 H            1 SAM4633   0.0000
    45 H1'         63.6877    29.4502    36.3071 H            1 SAM4633   0.0000
    46 H19         60.9939    29.0681    34.1548 H            1 SAM4633   0.0000
    47 H20         57.6700    26.3323    38.4929 H            1 SAM4633   0.0000
    48 H21         57.6575    27.0723    36.9269 H            1 SAM4633   0.0000
    49 H22         62.0089    26.4403    39.8964 H            1 SAM4633   0.0000
    50 H23         60.2283    34.7799    31.6691 H            1 SAM4633   0.0000
@<TRIPOS>BOND
     1    1    2       1
     2    2    3       1
     3    2    6       1
     4    3    4      ar
     5    3    5      ar
     6    6    7       1
     7    7    8       1
     8    8    9       1
     9    8   10       1
    10   10   11       1
    11   11   12       1
    12   11   13       1
    13   12   17       1
    14   13   14       1
    15   13   15       1
    16   15   16       1
    17   15   17       1
    18   17   18       1
    19   18   19       1
    20   18   27       1
    21   19   20       2
    22   20   21       1
    23   21   22      ar
    24   21   27      ar
    25   22   23       1
    26   22   24      ar
    27   24   25      ar
    28   25   26      ar
    29   26   27      ar
    30    1   28       1
    31    1   29       1
    32    2   30       1
    33    1   50       1
    34    6   31       1
    35    6   32       1
    36    7   33       1
    37    7   34       1
    38    9   35       1
    39    9   36       1
    40    9   37       1
    41   10   38       1
    42   10   39       1
    43   11   40       1
    44   13   41       1
    45   14   42       1
    46   15   43       1
    47   16   44       1
    48   17   45       1
    49   19   46       1
    50   23   47       1
    51   23   48       1
    52   25   49       1
@<TRIPOS>SUBSTRUCTURE
     1 SAM4633     1 GROUP             4 A     SAM     0 **** SAM A4633
