@<TRIPOS>MOLECULE
1d4d_FAD_1_ligand
   84    89     1     0     0
SMALL
NO_CHARGES


@<TRIPOS>ATOM
     1 PA           0.4100    42.3360    16.6650 P.3          1 FAD600   0.0000
     2 O1A          0.4750    40.8890    16.4510 O.co2        1 FAD600   0.0000
     3 O2A          1.3440    43.0040    17.5610 O.co2        1 FAD600  -1.0000
     4 O5B         -0.8780    42.5030    17.5060 O.3          1 FAD600   0.0000
     5 C5B         -2.0040    41.5540    17.2810 C.3          1 FAD600   0.0000
     6 C4B         -3.5920    41.2620    17.8830 C.3          1 FAD600   0.0000
     7 O4B         -4.7440    40.6420    17.3210 O.3          1 FAD600   0.0000
     8 C3B         -2.7540    40.0550    18.3320 C.3          1 FAD600   0.0000
     9 O3B         -2.2330    40.2750    19.6390 O.3          1 FAD600   0.0000
    10 C2B         -3.7130    38.8820    18.2220 C.3          1 FAD600   0.0000
    11 O2B         -3.5960    37.8740    19.1900 O.3          1 FAD600   0.0000
    12 C1B         -5.0210    39.6230    18.2950 C.3          1 FAD600   0.0000
    13 N9A         -5.9290    38.8560    17.4480 N.pl3        1 FAD600   0.0000
    14 C8A         -5.6700    38.1550    16.3160 C.2          1 FAD600   0.0000
    15 N7A         -6.7790    37.6800    15.7820 N.2          1 FAD600   0.0000
    16 C5A         -7.8190    38.0580    16.6450 C.ar         1 FAD600   0.0000
    17 C6A         -9.2190    37.9070    16.6540 C.ar         1 FAD600   0.0000
    18 N6A         -9.8040    37.1920    15.6700 N.pl3        1 FAD600   0.0000
    19 N1A         -9.8760    38.4760    17.6560 N.ar         1 FAD600   0.0000
    20 C2A         -9.2410    39.1670    18.5920 C.ar         1 FAD600   0.0000
    21 N3A         -7.9370    39.4620    18.7100 N.ar         1 FAD600   0.0000
    22 C4A         -7.2770    38.8560    17.6840 C.ar         1 FAD600   0.0000
    23 N1           9.2500    45.5140    13.3030 N.2          1 FAD600   0.0000
    24 C2           9.9360    46.6670    13.4190 C.2          1 FAD600   0.0000
    25 O2           9.5500    47.5920    12.7150 O.2          1 FAD600   0.0000
    26 N3          10.9860    46.8110    14.3430 N.pl3        1 FAD600   0.0000
    27 C4          11.3570    45.7420    15.1430 C.2          1 FAD600   0.0000
    28 O4          12.2870    45.7790    15.9870 O.2          1 FAD600   0.0000
    29 C4X         10.5890    44.4840    14.9640 C.2          1 FAD600   0.0000
    30 N5          10.9060    43.4100    15.6860 N.2          1 FAD600   0.0000
    31 C5X         10.2190    42.2810    15.5980 C.ar         1 FAD600   0.0000
    32 C6          10.6520    41.2360    16.4430 C.ar         1 FAD600   0.0000
    33 C7           9.8570    40.0650    16.5890 C.ar         1 FAD600   0.0000
    34 C7M         10.2030    38.8730    17.4600 C.3          1 FAD600   0.0000
    35 C8           8.6080    40.0620    15.8420 C.ar         1 FAD600   0.0000
    36 C8M          7.6860    38.8600    15.9230 C.3          1 FAD600   0.0000
    37 C9           8.1940    41.1300    15.0060 C.ar         1 FAD600   0.0000
    38 C9A          9.0000    42.2790    14.8710 C.ar         1 FAD600   0.0000
    39 N10          8.8320    43.2800    13.9140 N.pl3        1 FAD600   0.0000
    40 C10          9.5300    44.4580    14.0500 C.2          1 FAD600   0.0000
    41 C1'          7.6470    43.4280    13.0560 C.3          1 FAD600   0.0000
    42 C2'          6.4170    44.2180    14.0930 C.3          1 FAD600   0.0000
    43 O2'          6.4860    43.3990    15.2480 O.3          1 FAD600   0.0000
    44 C3'          5.0140    43.9180    13.5080 C.3          1 FAD600   0.0000
    45 O3'          5.1280    42.7120    12.7200 O.3          1 FAD600   0.0000
    46 C4'          4.0270    43.7140    14.6920 C.3          1 FAD600   0.0000
    47 O4'          4.1880    44.9320    15.3440 O.3          1 FAD600   0.0000
    48 C5'          2.6360    43.6240    14.1970 C.3          1 FAD600   0.0000
    49 O5'          1.7260    44.6530    14.6770 O.3          1 FAD600   0.0000
    50 P            0.2100    44.4940    14.6550 P.3          1 FAD600   0.0000
    51 O1P         -0.2320    44.4390    13.2960 O.co2        1 FAD600   0.0000
    52 O2P         -0.4470    45.5720    15.4010 O.co2        1 FAD600  -1.0000
    53 O3P          0.0370    43.1190    15.3350 O.3          1 FAD600   0.0000
    54 H5B1        -1.5610    40.6716    17.4393 H            1 FAD600   0.0000
    55 H5B2        -2.1755    41.6702    16.3027 H            1 FAD600   0.0000
    56 H4B         -3.8230    41.8656    18.6461 H            1 FAD600   0.0000
    57 H3B         -1.9965    39.9230    17.6927 H            1 FAD600   0.0000
    58 H5          -2.9883    40.4055    20.2813 H            1 FAD600   0.0000
    59 H2B         -3.6221    38.4724    17.3142 H            1 FAD600   0.0000
    60 H7          -3.7502    38.2641    20.0978 H            1 FAD600   0.0000
    61 H1B         -5.3484    39.9103    19.1951 H            1 FAD600   0.0000
    62 H8A         -4.7559    38.0161    15.9351 H            1 FAD600   0.0000
    63 H6A1       -10.7970    37.0742    15.6601 H            1 FAD600   0.0000
    64 H6A2        -9.2444    36.7801    14.9508 H            1 FAD600   0.0000
    65 H2A         -9.8231    39.5234    19.3228 H            1 FAD600   0.0000
    66 H13         11.4652    47.6851    14.4229 H            1 FAD600   0.0000
    67 H14         11.5167    41.3188    16.9385 H            1 FAD600   0.0000
    68 H7M1         9.4808    38.1853    17.3861 H            1 FAD600   0.0000
    69 H7M2        11.0706    38.4791    17.1566 H            1 FAD600   0.0000
    70 H7M3        10.2858    39.1685    18.4118 H            1 FAD600   0.0000
    71 H8M1         6.8788    39.0201    15.3548 H            1 FAD600   0.0000
    72 H8M2         8.1682    38.0474    15.5956 H            1 FAD600   0.0000
    73 H8M3         7.4032    38.7201    16.8719 H            1 FAD600   0.0000
    74 H21          7.3276    41.0680    14.5106 H            1 FAD600   0.0000
    75 H1'1         7.3236    42.5338    12.7465 H            1 FAD600   0.0000
    76 H1'2         7.8569    43.9994    12.2626 H            1 FAD600   0.0000
    77 H2'          6.5895    45.1875    14.2673 H            1 FAD600   0.0000
    78 H25          6.2573    43.9421    16.0559 H            1 FAD600   0.0000
    79 H3'          4.7105    44.6779    12.9332 H            1 FAD600   0.0000
    80 H27          5.4336    41.9599    13.3039 H            1 FAD600   0.0000
    81 H4'          4.2780    42.9364    15.2685 H            1 FAD600   0.0000
    82 H29          3.6008    44.9572    16.1530 H            1 FAD600   0.0000
    83 H5'1         2.2686    42.7360    14.4736 H            1 FAD600   0.0000
    84 H5'2         2.6613    43.6780    13.1988 H            1 FAD600   0.0000
@<TRIPOS>BOND
     1    1    2      ar
     2    1    3      ar
     3    1    4       1
     4    1   53       1
     5    4    5       1
     6    5    6       1
     7    6    7       1
     8    6    8       1
     9    7   12       1
    10    8    9       1
    11    8   10       1
    12   10   11       1
    13   10   12       1
    14   12   13       1
    15   13   14       1
    16   13   22       1
    17   14   15       2
    18   15   16       1
    19   16   17      ar
    20   16   22      ar
    21   17   18       1
    22   17   19      ar
    23   19   20      ar
    24   20   21      ar
    25   21   22      ar
    26   23   24       1
    27   23   40       2
    28   24   25       2
    29   24   26       1
    30   26   27       1
    31   27   28       2
    32   27   29       1
    33   29   30       2
    34   29   40       1
    35   30   31       1
    36   31   32      ar
    37   31   38      ar
    38   32   33      ar
    39   33   34       1
    40   33   35      ar
    41   35   36       1
    42   35   37      ar
    43   37   38      ar
    44   38   39       1
    45   39   40       1
    46   39   41       1
    47   41   42       1
    48   42   43       1
    49   42   44       1
    50   44   45       1
    51   44   46       1
    52   46   47       1
    53   46   48       1
    54   48   49       1
    55   49   50       1
    56   50   51      ar
    57   50   52      ar
    58   50   53       1
    59   48   84       1
    60    5   54       1
    61    5   55       1
    62    6   56       1
    63    8   57       1
    64    9   58       1
    65   10   59       1
    66   11   60       1
    67   12   61       1
    68   14   62       1
    69   18   63       1
    70   18   64       1
    71   20   65       1
    72   26   66       1
    73   32   67       1
    74   34   68       1
    75   34   69       1
    76   34   70       1
    77   36   71       1
    78   36   72       1
    79   36   73       1
    80   37   74       1
    81   41   75       1
    82   41   76       1
    83   42   77       1
    84   43   78       1
    85   44   79       1
    86   45   80       1
    87   46   81       1
    88   47   82       1
    89   48   83       1
@<TRIPOS>SUBSTRUCTURE
     1 FAD600      1 GROUP             4 A     FAD     0 **** FAD A 600
