@<TRIPOS>MOLECULE
3qd4_3Q6_1_ligand
   62    65     1     0     0
SMALL
NO_CHARGES


@<TRIPOS>ATOM
     1 C1         -41.1240    16.4690    12.9480 C.ar         1 3Q6360   0.0000
     2 C2         -42.2820    17.1410    12.6000 C.ar         1 3Q6360   0.0000
     3 C3         -43.3400    15.1520    11.8220 C.ar         1 3Q6360   0.0000
     4 C4         -44.8070    18.5420    11.8730 C.ar         1 3Q6360   0.0000
     5 C5         -41.0830    15.0980    12.7240 C.ar         1 3Q6360   0.0000
     6 C6         -43.3760    16.5110    12.0360 C.ar         1 3Q6360   0.0000
     7 C7         -42.1900    14.4870    12.1790 C.ar         1 3Q6360   0.0000
     8 C8         -44.5840    17.2070    11.6270 C.ar         1 3Q6360   0.0000
     9 C9         -46.0200    19.0500    11.4440 C.ar         1 3Q6360   0.0000
    10 C10        -40.1420    14.0330    12.9060 C.2          1 3Q6360   0.0000
    11 C11        -46.6500    17.0150    10.6290 C.ar         1 3Q6360   0.0000
    12 C12        -50.4740    21.7030    12.3330 C.2          1 3Q6360   0.0000
    13 C13        -47.0460    22.5690    13.0400 C.3          1 3Q6360   0.0000
    14 C14        -45.1710    21.2820    11.9550 C.3          1 3Q6360   0.0000
    15 C15        -47.4620    21.0020    11.0990 C.3          1 3Q6360   0.0000
    16 C16        -45.6510    21.9650    13.2290 C.3          1 3Q6360   0.0000
    17 C17        -48.0390    21.6270    12.3570 C.3          1 3Q6360   0.0000
    18 C18        -45.6720    20.9480    14.3450 C.3          1 3Q6360   0.0000
    19 C19        -53.1510    22.1240    13.4730 C.3          1 3Q6360   0.0000
    20 C20        -53.5610    23.2920    11.3170 C.3          1 3Q6360   0.0000
    21 C21        -53.1920    20.8780    11.2950 C.3          1 3Q6360   0.0000
    22 C22        -52.8070    22.1660    11.9910 C.3          1 3Q6360   0.0000
    23 N23        -45.4950    16.4440    11.0000 N.ar         1 3Q6360   0.0000
    24 N24        -46.9520    18.3010    10.8420 N.ar         1 3Q6360   0.0000
    25 N25        -40.6410    12.8620    12.4980 N.2          1 3Q6360   0.0000
    26 N26        -41.8770    13.1570    12.0670 N.pl3        1 3Q6360   0.0000
    27 N27        -46.3020    20.4020    11.7270 N.pl3        1 3Q6360   0.0000
    28 N28        -38.8970    14.1940    13.4270 N.pl3        1 3Q6360   0.0000
    29 N29        -47.6110    16.2260     9.9840 N.pl3        1 3Q6360   0.0000
    30 N30        -49.2690    22.3130    12.0960 N.am         1 3Q6360   0.0000
    31 O31        -50.6600    20.6440    12.9150 O.2          1 3Q6360   0.0000
    32 O32        -51.4270    22.4970    11.7890 O.3          1 3Q6360   0.0000
    33 H1         -40.3445    16.9523    13.3464 H            1 3Q6360   0.0000
    34 H2         -42.3300    18.1264    12.7636 H            1 3Q6360   0.0000
    35 H3         -44.1185    14.6675    11.4230 H            1 3Q6360   0.0000
    36 H4         -44.1297    19.1135    12.3363 H            1 3Q6360   0.0000
    37 H5         -46.9593    23.3943    12.4820 H            1 3Q6360   0.0000
    38 H6         -47.4091    22.8115    13.9396 H            1 3Q6360   0.0000
    39 H7         -44.3229    20.7723    12.0998 H            1 3Q6360   0.0000
    40 H8         -45.0453    21.9323    11.2058 H            1 3Q6360   0.0000
    41 H9         -47.2160    21.6835    10.4098 H            1 3Q6360   0.0000
    42 H10        -48.0731    20.3226    10.6928 H            1 3Q6360   0.0000
    43 H11        -45.0105    22.6952    13.4671 H            1 3Q6360   0.0000
    44 H12        -48.2385    20.8850    12.9971 H            1 3Q6360   0.0000
    45 H13        -44.7574    20.5603    14.4599 H            1 3Q6360   0.0000
    46 H14        -45.9551    21.3919    15.1952 H            1 3Q6360   0.0000
    47 H15        -46.3174    20.2184    14.1190 H            1 3Q6360   0.0000
    48 H16        -52.6492    21.3779    13.9107 H            1 3Q6360   0.0000
    49 H17        -52.8963    22.9921    13.8991 H            1 3Q6360   0.0000
    50 H18        -54.1336    21.9744    13.5830 H            1 3Q6360   0.0000
    51 H19        -53.3296    23.3128    10.3444 H            1 3Q6360   0.0000
    52 H20        -54.5444    23.1447    11.4226 H            1 3Q6360   0.0000
    53 H21        -53.3071    24.1625    11.7387 H            1 3Q6360   0.0000
    54 H22        -52.9532    20.9386    10.3258 H            1 3Q6360   0.0000
    55 H23        -52.7003    20.1137    11.7123 H            1 3Q6360   0.0000
    56 H24        -54.1768    20.7308    11.3871 H            1 3Q6360   0.0000
    57 H25        -42.5081    12.4736    11.7000 H            1 3Q6360   0.0000
    58 H26        -38.2905    13.4051    13.5260 H            1 3Q6360   0.0000
    59 H27        -38.5875    15.1014    13.7113 H            1 3Q6360   0.0000
    60 H28        -48.4798    16.6302     9.6982 H            1 3Q6360   0.0000
    61 H29        -47.4282    15.2585     9.8093 H            1 3Q6360   0.0000
    62 H30        -49.2488    23.2462    11.7373 H            1 3Q6360   0.0000
@<TRIPOS>BOND
     1    1    2      ar
     2    1    5      ar
     3    2    6      ar
     4    3    6      ar
     5    3    7      ar
     6    4    8      ar
     7    4    9      ar
     8    5    7      ar
     9    5   10       1
    10    6    8       1
    11    7   26       1
    12    8   23      ar
    13    9   24      ar
    14    9   27       1
    15   10   25       2
    16   10   28       1
    17   11   23      ar
    18   11   24      ar
    19   11   29       1
    20   12   30      am
    21   12   31       2
    22   12   32       1
    23   13   16       1
    24   13   17       1
    25   14   16       1
    26   14   27       1
    27   15   17       1
    28   15   27       1
    29   16   18       1
    30   17   30       1
    31   19   22       1
    32   20   22       1
    33   21   22       1
    34   22   32       1
    35   25   26       1
    36    1   33       1
    37    2   34       1
    38    3   35       1
    39    4   36       1
    40   13   37       1
    41   13   38       1
    42   14   39       1
    43   14   40       1
    44   15   41       1
    45   15   42       1
    46   16   43       1
    47   17   44       1
    48   18   45       1
    49   18   46       1
    50   18   47       1
    51   19   48       1
    52   19   49       1
    53   19   50       1
    54   20   51       1
    55   20   52       1
    56   20   53       1
    57   21   54       1
    58   21   55       1
    59   21   56       1
    60   26   57       1
    61   28   58       1
    62   28   59       1
    63   29   60       1
    64   29   61       1
    65   30   62       1
@<TRIPOS>SUBSTRUCTURE
     1 3Q6360      1 GROUP             4 A     3Q6     0 **** 3Q6 A 360
