@<TRIPOS>MOLECULE
1kgq_SCO_1_ligand
   91    93     1     0     0
SMALL
NO_CHARGES


@<TRIPOS>ATOM
     1 N1          57.2000    86.2720    20.0900 N.ar         1 SCO302   0.0000
     2 C2          57.1870    86.4040    21.4480 C.ar         1 SCO302   0.0000
     3 N3          57.8240    87.2320    22.1730 N.ar         1 SCO302   0.0000
     4 C4          58.5970    88.0390    21.4300 C.ar         1 SCO302   0.0000
     5 C5          58.7360    88.0790    20.0510 C.ar         1 SCO302   0.0000
     6 C6          57.9650    87.1250    19.3340 C.ar         1 SCO302   0.0000
     7 N6          57.9470    87.0080    17.9980 N.pl3        1 SCO302   0.0000
     8 N7          59.6220    89.0510    19.6930 N.2          1 SCO302   0.0000
     9 C8          59.9950    89.5820    20.8370 C.2          1 SCO302   0.0000
    10 N9          59.3810    89.0040    21.9120 N.pl3        1 SCO302   0.0000
    11 C1'         59.5780    89.4040    23.2800 C.3          1 SCO302   0.0000
    12 C2'         60.9170    88.9410    23.7580 C.3          1 SCO302   0.0000
    13 O2          60.8500    87.5770    24.2300 O.3          1 SCO302   0.0000
    14 C3'         61.2750    89.9240    24.8740 C.3          1 SCO302   0.0000
    15 O3          60.7670    89.4890    26.1510 O.3          1 SCO302   0.0000
    16 P3          61.1020    90.3530    27.4160 P.3          1 SCO302   0.0000
    17 O7          61.4320    91.7370    26.9830 O.co2        1 SCO302   0.0000
    18 O8          62.1600    89.6540    28.1800 O.co2        1 SCO302  -1.0000
    19 O9          59.9100    90.3950    28.2980 O.co2        1 SCO302  -1.0000
    20 C4'         60.6530    91.1770    24.2760 C.3          1 SCO302   0.0000
    21 O4          59.6250    90.7970    23.3430 O.3          1 SCO302   0.0000
    22 C5'         61.6670    91.9350    23.4480 C.3          1 SCO302   0.0000
    23 O5          62.0920    91.0350    22.3890 O.3          1 SCO302   0.0000
    24 P1          63.5080    91.2110    21.6540 P.3          1 SCO302   0.0000
    25 O1'         63.9550    89.9590    20.9920 O.co2        1 SCO302   0.0000
    26 O2'         64.5150    91.7430    22.6010 O.co2        1 SCO302  -1.0000
    27 O3'         63.2290    92.3240    20.6000 O.3          1 SCO302   0.0000
    28 P2          63.3200    92.4570    18.9410 P.3          1 SCO302   0.0000
    29 O4'         64.2010    91.4420    18.3380 O.co2        1 SCO302   0.0000
    30 O5'         63.7180    93.8200    18.5450 O.co2        1 SCO302  -1.0000
    31 O6'         61.7720    92.1950    18.5940 O.3          1 SCO302   0.0000
    32 C11         61.5270    90.8470    18.0270 C.3          1 SCO302   0.0000
    33 C12         60.7600    90.8510    16.6960 C.3          1 SCO302   0.0000
    34 C13         59.3890    91.5030    16.9010 C.3          1 SCO302   0.0000
    35 C14         61.4790    91.6270    15.5970 C.3          1 SCO302   0.0000
    36 C15         60.5750    89.4400    16.2310 C.3          1 SCO302   0.0000
    37 O10         59.9180    88.6390    17.2290 O.3          1 SCO302   0.0000
    38 C9          59.7120    89.5270    15.0070 C.2          1 SCO302   0.0000
    39 O11         58.4870    89.5140    15.0930 O.2          1 SCO302   0.0000
    40 N8          60.3620    89.6130    13.8610 N.am         1 SCO302   0.0000
    41 C27         59.6790    89.6600    12.5710 C.3          1 SCO302   0.0000
    42 C26         59.5190    88.2690    11.9790 C.3          1 SCO302   0.0000
    43 C25         58.9320    88.3410    10.5830 C.2          1 SCO302   0.0000
    44 O12         57.7750    88.7060    10.3970 O.2          1 SCO302   0.0000
    45 N34         59.7810    88.0220     9.6460 N.am         1 SCO302   0.0000
    46 C33         59.4100    88.0180     8.2610 C.3          1 SCO302   0.0000
    47 C32         59.7340    86.6290     7.7510 C.3          1 SCO302   0.0000
    48 N31         60.7920    86.6380     6.7990 N.am         1 SCO302   0.0000
    49 C42         59.1480    85.3640     5.4840 C.3          1 SCO302   0.0000
    50 C41         60.5450    86.0880     5.5860 C.2          1 SCO302   0.0000
    51 O41         61.3850    86.1230     4.5670 O.2          1 SCO302   0.0000
    52 C43         58.7380    84.9320     4.0320 C.3          1 SCO302   0.0000
    53 C44         57.2810    84.5100     3.8120 C.2          1 SCO302   0.0000
    54 O44         56.8950    84.5310     2.6430 O.co2        1 SCO302   0.0000
    55 O45         56.5480    84.1350     4.8230 O.co2        1 SCO302  -1.0000
    56 H1          56.5970    85.7633    21.9393 H            1 SCO302   0.0000
    57 H2          58.4993    87.6226    17.4348 H            1 SCO302   0.0000
    58 H3          57.3813    86.3062    17.5651 H            1 SCO302   0.0000
    59 H4          60.6565    90.3282    20.9119 H            1 SCO302   0.0000
    60 H1'         58.8490    89.0462    23.8635 H            1 SCO302   0.0000
    61 H2'         61.5847    89.0112    23.0169 H            1 SCO302   0.0000
    62 H7          61.7543    87.2882    24.5443 H            1 SCO302   0.0000
    63 H3'         62.2680    90.0309    24.9242 H            1 SCO302   0.0000
    64 H4'         60.2775    91.7617    24.9952 H            1 SCO302   0.0000
    65 H5'1        62.4491    92.1961    24.0139 H            1 SCO302   0.0000
    66 H5'2        61.2497    92.7554    23.0572 H            1 SCO302   0.0000
    67 H12         60.9982    90.3190    18.6916 H            1 SCO302   0.0000
    68 H13         62.4113    90.4046    17.8776 H            1 SCO302   0.0000
    69 H14         58.8886    91.5062    16.0352 H            1 SCO302   0.0000
    70 H15         58.8722    90.9852    17.5827 H            1 SCO302   0.0000
    71 H16         59.5112    92.4432    17.2189 H            1 SCO302   0.0000
    72 H17         60.9365    91.5960    14.7575 H            1 SCO302   0.0000
    73 H18         61.5967    92.5780    15.8828 H            1 SCO302   0.0000
    74 H19         62.3751    91.2157    15.4302 H            1 SCO302   0.0000
    75 H20         61.4603    89.0377    15.9977 H            1 SCO302   0.0000
    76 H21         59.7217    89.2018    18.0319 H            1 SCO302   0.0000
    77 H22         61.3613    89.6473    13.8770 H            1 SCO302   0.0000
    78 H23         60.2130    90.2229    11.9401 H            1 SCO302   0.0000
    79 H24         58.7740    90.0666    12.6963 H            1 SCO302   0.0000
    80 H25         58.9101    87.7323    12.5632 H            1 SCO302   0.0000
    81 H26         60.4147    87.8265    11.9354 H            1 SCO302   0.0000
    82 H27         60.7157    87.7735     9.9002 H            1 SCO302   0.0000
    83 H28         59.9346    88.7048     7.7580 H            1 SCO302   0.0000
    84 H29         58.4329    88.2063     8.1617 H            1 SCO302   0.0000
    85 H30         58.9169    86.2455     7.3205 H            1 SCO302   0.0000
    86 H31         60.0028    86.0563     8.5255 H            1 SCO302   0.0000
    87 H32         61.6835    87.0351     7.0172 H            1 SCO302   0.0000
    88 H33         58.4480    85.9871     5.8330 H            1 SCO302   0.0000
    89 H34         59.1795    84.5442     6.0557 H            1 SCO302   0.0000
    90 H35         59.3174    84.1592     3.7731 H            1 SCO302   0.0000
    91 H36         58.9223    85.7049     3.4248 H            1 SCO302   0.0000
@<TRIPOS>BOND
     1    1    2      ar
     2    1    6      ar
     3    2    3      ar
     4    3    4      ar
     5    4    5      ar
     6    4   10       1
     7    5    6      ar
     8    5    8       1
     9    6    7       1
    10    8    9       2
    11    9   10       1
    12   10   11       1
    13   11   12       1
    14   11   21       1
    15   12   13       1
    16   12   14       1
    17   14   15       1
    18   14   20       1
    19   15   16       1
    20   16   17      ar
    21   16   18      ar
    22   16   19      ar
    23   20   21       1
    24   20   22       1
    25   22   23       1
    26   23   24       1
    27   24   25      ar
    28   24   26      ar
    29   24   27       1
    30   27   28       1
    31   28   29      ar
    32   28   30      ar
    33   28   31       1
    34   31   32       1
    35   32   33       1
    36   33   34       1
    37   33   35       1
    38   33   36       1
    39   36   37       1
    40   36   38       1
    41   38   39       2
    42   38   40      am
    43   40   41       1
    44   41   42       1
    45   42   43       1
    46   43   44       2
    47   43   45      am
    48   45   46       1
    49   46   47       1
    50   47   48       1
    51   48   50      am
    52   49   50       1
    53   49   52       1
    54   50   51       2
    55   52   53       1
    56   53   54      ar
    57   53   55      ar
    58    2   56       1
    59    7   57       1
    60    7   58       1
    61    9   59       1
    62   11   60       1
    63   12   61       1
    64   13   62       1
    65   14   63       1
    66   49   88       1
    67   52   91       1
    68   20   64       1
    69   22   65       1
    70   22   66       1
    71   52   90       1
    72   49   89       1
    73   32   67       1
    74   32   68       1
    75   34   69       1
    76   34   70       1
    77   34   71       1
    78   35   72       1
    79   35   73       1
    80   35   74       1
    81   36   75       1
    82   37   76       1
    83   40   77       1
    84   41   78       1
    85   41   79       1
    86   42   80       1
    87   42   81       1
    88   45   82       1
    89   46   83       1
    90   46   84       1
    91   47   85       1
    92   47   86       1
    93   48   87       1
@<TRIPOS>SUBSTRUCTURE
     1 SCO302      1 GROUP             4 A     SCO     0 **** SCO A 302
