@<TRIPOS>MOLECULE
4wq0_EFO_1_ligand
  130   132     1     0     0
SMALL
NO_CHARGES


@<TRIPOS>ATOM
     1 C1A        -23.9420   -26.8190    -4.8000 C.3          1 EFO502   0.0000
     2 C10        -23.1750   -27.9590    -5.4640 C.3          1 EFO502   0.0000
     3 C11        -24.0130   -29.2180    -5.3010 C.3          1 EFO502   0.0000
     4 C12        -23.2260   -30.3280    -5.9660 C.3          1 EFO502   0.0000
     5 C1B        -21.9420   -30.5170    -5.1840 C.3          1 EFO502   0.0000
     6 O37        -24.2100   -29.5080    -3.9140 O.3          1 EFO502   0.0000
     7 C36        -25.4570   -29.0940    -3.2670 C.2          1 EFO502   0.0000
     8 O36        -25.6350   -27.9310    -3.0150 O.2          1 EFO502   0.0000
     9 C35        -26.4200   -29.9400    -2.8820 C.2          1 EFO502   0.0000
    10 C34        -26.3850   -31.2560    -3.0620 C.2          1 EFO502   0.0000
    11 C33        -27.5550   -32.0810    -2.5850 C.3          1 EFO502   0.0000
    12 C3B        -27.8040   -31.7330    -1.1290 C.3          1 EFO502   0.0000
    13 C32        -27.2940   -33.5760    -2.6820 C.3          1 EFO502   0.0000
    14 O32        -28.3760   -34.2550    -2.0500 O.3          1 EFO502   0.0000
    15 C31        -27.1870   -34.0800    -4.1080 C.3          1 EFO502   0.0000
    16 C3A        -28.3950   -33.6590    -4.9250 C.3          1 EFO502   0.0000
    17 C30        -27.1000   -35.5720    -4.0360 C.2          1 EFO502   0.0000
    18 O30        -28.0980   -36.2450    -4.1220 O.2          1 EFO502   0.0000
    19 C29        -25.7800   -36.2390    -3.8310 C.3          1 EFO502   0.0000
    20 C2D        -25.0020   -35.3940    -2.8250 C.3          1 EFO502   0.0000
    21 C28        -25.0610   -36.4400    -5.1660 C.3          1 EFO502   0.0000
    22 O28        -25.3140   -35.3510    -6.0500 O.3          1 EFO502   0.0000
    23 C27        -23.5570   -36.5740    -4.9800 C.3          1 EFO502   0.0000
    24 C2C        -22.9300   -35.2050    -4.7820 C.3          1 EFO502   0.0000
    25 C26        -22.9190   -37.2470    -6.1490 C.2          1 EFO502   0.0000
    26 O26        -23.4450   -37.2200    -7.2390 O.2          1 EFO502   0.0000
    27 C25        -21.6140   -37.9680    -5.9620 C.3          1 EFO502   0.0000
    28 C2B        -21.9120   -39.2200    -5.1620 C.3          1 EFO502   0.0000
    29 O25        -20.6980   -37.1550    -5.2270 O.3          1 EFO502   0.0000
    30 C24        -21.0030   -38.3800    -7.2950 C.3          1 EFO502   0.0000
    31 O24        -21.4230   -37.5400    -8.3750 O.3          1 EFO502   0.0000
    32 C23        -19.4840   -38.5020    -7.2300 C.3          1 EFO502   0.0000
    33 C2A        -19.1360   -39.4350    -6.0850 C.3          1 EFO502   0.0000
    34 C22        -18.7060   -37.2110    -7.0490 C.3          1 EFO502   0.0000
    35 C21        -19.2010   -36.0810    -7.8990 C.2          1 EFO502   0.0000
    36 C20        -18.9310   -34.8610    -7.4670 C.2          1 EFO502   0.0000
    37 C19        -19.3180   -33.7880    -8.1330 C.2          1 EFO502   0.0000
    38 C18        -19.0330   -32.5720    -7.6820 C.2          1 EFO502   0.0000
    39 C17        -19.4950   -31.3710    -8.4710 C.3          1 EFO502   0.0000
    40 C1C        -18.3140   -30.4690    -8.8220 C.3          1 EFO502   0.0000
    41 C1D        -17.7630   -30.7130   -10.2140 C.3          1 EFO502   0.0000
    42 C16        -20.4840   -30.5920    -7.6280 C.3          1 EFO502   0.0000
    43 C15        -21.8760   -30.6050    -8.2370 C.3          1 EFO502   0.0000
    44 C13        -23.0750   -30.0230    -7.4720 C.3          1 EFO502   0.0000
    45 O14        -23.2460   -28.6430    -7.8240 O.3          1 EFO502   0.0000
    46 C8         -22.7150   -27.6910    -6.9140 C.3          1 EFO502   0.0000
    47 O9         -23.1760   -26.3970    -7.3520 O.3          1 EFO502   0.0000
    48 C7         -21.2190   -27.8890    -7.1080 C.3          1 EFO502   0.0000
    49 C6         -20.8860   -27.2920    -8.4860 C.3          1 EFO502   0.0000
    50 C5         -21.6120   -26.0110    -8.9330 C.3          1 EFO502   0.0000
    51 C51        -20.6780   -25.0140    -9.5850 C.3          1 EFO502   0.0000
    52 C4         -22.2930   -25.3560    -7.7660 C.3          1 EFO502   0.0000
    53 C3         -21.2060   -25.0580    -6.7370 C.3          1 EFO502   0.0000
    54 C2         -21.3990   -25.6510    -5.3450 C.3          1 EFO502   0.0000
    55 C1         -20.2000   -26.4440    -4.8660 C.3          1 EFO502   0.0000
    56 O2         -21.5750   -24.6010    -4.3980 O.3          1 EFO502   0.0000
    57 H1A1       -23.4198   -25.9706    -4.8872 H            1 EFO502   0.0000
    58 H1A2       -24.8305   -26.7109    -5.2459 H            1 EFO502   0.0000
    59 H1A3       -24.0783   -27.0285    -3.8317 H            1 EFO502   0.0000
    60 H4         -22.3454   -28.0971    -4.9230 H            1 EFO502   0.0000
    61 H5         -24.8960   -29.1035    -5.7562 H            1 EFO502   0.0000
    62 H6         -23.7589   -31.1698    -5.8800 H            1 EFO502   0.0000
    63 H1B1       -21.4011   -31.2465    -5.6026 H            1 EFO502   0.0000
    64 H1B2       -21.4175   -29.6657    -5.1936 H            1 EFO502   0.0000
    65 H1B3       -22.1600   -30.7636    -4.2397 H            1 EFO502   0.0000
    66 H10        -27.2225   -29.5544    -2.4267 H            1 EFO502   0.0000
    67 H11        -25.6002   -31.6904    -3.5041 H            1 EFO502   0.0000
    68 H12        -28.3650   -31.8503    -3.1241 H            1 EFO502   0.0000
    69 H3B1       -28.5767   -32.2671    -0.7861 H            1 EFO502   0.0000
    70 H3B2       -26.9878   -31.9446    -0.5914 H            1 EFO502   0.0000
    71 H3B3       -28.0115   -30.7580    -1.0501 H            1 EFO502   0.0000
    72 H16        -26.4467   -33.7908    -2.1963 H            1 EFO502   0.0000
    73 H17        -28.2257   -35.2423    -2.1017 H            1 EFO502   0.0000
    74 H18        -26.3559   -33.7169    -4.5292 H            1 EFO502   0.0000
    75 H3A1       -28.3015   -34.0024    -5.8595 H            1 EFO502   0.0000
    76 H3A2       -29.2242   -34.0363    -4.5127 H            1 EFO502   0.0000
    77 H3A3       -28.4551   -32.6609    -4.9411 H            1 EFO502   0.0000
    78 H22        -25.9432   -37.1381    -3.4248 H            1 EFO502   0.0000
    79 H2D1       -24.1078   -35.8105    -2.6608 H            1 EFO502   0.0000
    80 H2D2       -24.8780   -34.4713    -3.1900 H            1 EFO502   0.0000
    81 H2D3       -25.5106   -35.3468    -1.9653 H            1 EFO502   0.0000
    82 H26        -25.4047   -37.2786    -5.5887 H            1 EFO502   0.0000
    83 H27        -24.8346   -35.5047    -6.9140 H            1 EFO502   0.0000
    84 H28        -23.3850   -37.1242    -4.1629 H            1 EFO502   0.0000
    85 H2C1       -21.9424   -35.3050    -4.6609 H            1 EFO502   0.0000
    86 H2C2       -23.1115   -34.6361    -5.5841 H            1 EFO502   0.0000
    87 H2C3       -23.3232   -34.7725    -3.9706 H            1 EFO502   0.0000
    88 H2B1       -21.0651   -39.7311    -5.0150 H            1 EFO502   0.0000
    89 H2B2       -22.3053   -38.9653    -4.2786 H            1 EFO502   0.0000
    90 H2B3       -22.5622   -39.7898    -5.6645 H            1 EFO502   0.0000
    91 H35        -20.8038   -37.3344    -4.2489 H            1 EFO502   0.0000
    92 H36        -21.3523   -39.2953    -7.4958 H            1 EFO502   0.0000
    93 H37        -22.3416   -37.1916    -8.1885 H            1 EFO502   0.0000
    94 H38        -19.1743   -38.9300    -8.0791 H            1 EFO502   0.0000
    95 H2A1       -18.1425   -39.5304    -6.0230 H            1 EFO502   0.0000
    96 H2A2       -19.4888   -39.0578    -5.2287 H            1 EFO502   0.0000
    97 H2A3       -19.5474   -40.3316    -6.2488 H            1 EFO502   0.0000
    98 H42        -17.7491   -37.3846    -7.2817 H            1 EFO502   0.0000
    99 H43        -18.7711   -36.9357    -6.0898 H            1 EFO502   0.0000
   100 H44        -19.7076   -36.2407    -8.7463 H            1 EFO502   0.0000
   101 H45        -18.4209   -34.7477    -6.6144 H            1 EFO502   0.0000
   102 H46        -19.8307   -33.8924    -8.9852 H            1 EFO502   0.0000
   103 H47        -18.5197   -32.4536    -6.8320 H            1 EFO502   0.0000
   104 H48        -19.9421   -31.6766    -9.3117 H            1 EFO502   0.0000
   105 H1C1       -17.5832   -30.6310    -8.1589 H            1 EFO502   0.0000
   106 H1C2       -18.6135   -29.5168    -8.7620 H            1 EFO502   0.0000
   107 H1D1       -16.9955   -30.0943   -10.3819 H            1 EFO502   0.0000
   108 H1D2       -17.4500   -31.6599   -10.2873 H            1 EFO502   0.0000
   109 H1D3       -18.4802   -30.5457   -10.8905 H            1 EFO502   0.0000
   110 H54        -20.1715   -29.6449    -7.5544 H            1 EFO502   0.0000
   111 H55        -20.5254   -31.0011    -6.7165 H            1 EFO502   0.0000
   112 H56        -22.0957   -31.5621    -8.4260 H            1 EFO502   0.0000
   113 H57        -21.8152   -30.1006    -9.0983 H            1 EFO502   0.0000
   114 H58        -23.8647   -30.4746    -7.8871 H            1 EFO502   0.0000
   115 H59        -20.9921   -28.8627    -7.0874 H            1 EFO502   0.0000
   116 H60        -20.7099   -27.4128    -6.3911 H            1 EFO502   0.0000
   117 H61        -21.0855   -27.9961    -9.1675 H            1 EFO502   0.0000
   118 H62        -19.9063   -27.0916    -8.4907 H            1 EFO502   0.0000
   119 H63        -22.3120   -26.2656    -9.6002 H            1 EFO502   0.0000
   120 H64        -21.1944   -24.2020    -9.8570 H            1 EFO502   0.0000
   121 H65        -19.9635   -24.7528    -8.9359 H            1 EFO502   0.0000
   122 H66        -20.2591   -25.4286   -10.3928 H            1 EFO502   0.0000
   123 H67        -22.7884   -24.5306    -8.0368 H            1 EFO502   0.0000
   124 H68        -21.1470   -24.0647    -6.6376 H            1 EFO502   0.0000
   125 H69        -20.3422   -25.4087    -7.0986 H            1 EFO502   0.0000
   126 H70        -22.2081   -26.2387    -5.3435 H            1 EFO502   0.0000
   127 H71        -20.3836   -26.8067    -3.9524 H            1 EFO502   0.0000
   128 H72        -20.0273   -27.2007    -5.4965 H            1 EFO502   0.0000
   129 H73        -19.3977   -25.8479    -4.8330 H            1 EFO502   0.0000
   130 H74        -21.7013   -24.9921    -3.4863 H            1 EFO502   0.0000
@<TRIPOS>BOND
     1    1    2       1
     2    2    3       1
     3    2   46       1
     4    3    4       1
     5    3    6       1
     6    4    5       1
     7    4   44       1
     8    6    7       1
     9    7    8       2
    10    7    9       1
    11    9   10       2
    12   10   11       1
    13   11   12       1
    14   11   13       1
    15   13   14       1
    16   13   15       1
    17   15   16       1
    18   15   17       1
    19   17   18       2
    20   17   19       1
    21   19   20       1
    22   19   21       1
    23   21   22       1
    24   21   23       1
    25   23   24       1
    26   23   25       1
    27   25   26       2
    28   25   27       1
    29   27   28       1
    30   27   29       1
    31   27   30       1
    32   30   31       1
    33   30   32       1
    34   32   33       1
    35   32   34       1
    36   34   35       1
    37   35   36       2
    38   36   37       1
    39   37   38       2
    40   38   39       1
    41   39   40       1
    42   39   42       1
    43   40   41       1
    44   42   43       1
    45   43   44       1
    46   44   45       1
    47   45   46       1
    48   46   47       1
    49   46   48       1
    50   47   52       1
    51   48   49       1
    52   49   50       1
    53   50   51       1
    54   50   52       1
    55   52   53       1
    56   53   54       1
    57   54   55       1
    58   54   56       1
    59    1   57       1
    60    1   58       1
    61    1   59       1
    62    2   60       1
    63    3   61       1
    64    4   62       1
    65    5   63       1
    66    5   64       1
    67    5   65       1
    68    9   66       1
    69   10   67       1
    70   11   68       1
    71   12   69       1
    72   12   70       1
    73   12   71       1
    74   13   72       1
    75   14   73       1
    76   15   74       1
    77   16   75       1
    78   16   76       1
    79   16   77       1
    80   19   78       1
    81   20   79       1
    82   20   80       1
    83   20   81       1
    84   21   82       1
    85   22   83       1
    86   23   84       1
    87   24   85       1
    88   24   86       1
    89   24   87       1
    90   28   88       1
    91   28   89       1
    92   28   90       1
    93   29   91       1
    94   30   92       1
    95   31   93       1
    96   32   94       1
    97   33   95       1
    98   33   96       1
    99   33   97       1
   100   34   98       1
   101   34   99       1
   102   35  100       1
   103   36  101       1
   104   37  102       1
   105   38  103       1
   106   39  104       1
   107   40  105       1
   108   40  106       1
   109   41  107       1
   110   41  108       1
   111   41  109       1
   112   42  110       1
   113   42  111       1
   114   43  112       1
   115   43  113       1
   116   44  114       1
   117   48  115       1
   118   48  116       1
   119   49  117       1
   120   49  118       1
   121   50  119       1
   122   51  120       1
   123   51  121       1
   124   51  122       1
   125   52  123       1
   126   53  124       1
   127   53  125       1
   128   54  126       1
   129   55  127       1
   130   55  128       1
   131   55  129       1
   132   56  130       1
@<TRIPOS>SUBSTRUCTURE
     1 EFO502      1 GROUP             4 A     EFO     0 **** EFO A 502
