@<TRIPOS>MOLECULE
3pvz_NAD_3_ligand
   70    74     1     0     0
SMALL
NO_CHARGES


@<TRIPOS>ATOM
     1 PA           1.9810    31.1650    65.0870 P.3          1 NAD501   0.0000
     2 O1A          2.7450    32.3530    65.5780 O.co2        1 NAD501   0.0000
     3 O2A          2.9390    30.1070    64.6000 O.co2        1 NAD501  -1.0000
     4 O5B          1.0540    31.5440    63.8260 O.3          1 NAD501   0.0000
     5 C5B          0.4580    32.8500    63.8740 C.3          1 NAD501   0.0000
     6 C4B          0.3600    33.3000    62.4010 C.3          1 NAD501   0.0000
     7 O4B         -0.4550    34.4650    62.2500 O.3          1 NAD501   0.0000
     8 C3B          1.7520    33.6270    61.8450 C.3          1 NAD501   0.0000
     9 O3B          2.0270    32.8240    60.7040 O.3          1 NAD501   0.0000
    10 C2B          1.6250    35.1120    61.4780 C.3          1 NAD501   0.0000
    11 O2B          2.4850    35.4650    60.3960 O.3          1 NAD501   0.0000
    12 C1B          0.1090    35.1720    61.1380 C.3          1 NAD501   0.0000
    13 N9A         -0.3400    36.5420    61.1890 N.pl3        1 NAD501   0.0000
    14 C8A         -0.2110    37.4150    62.2420 C.2          1 NAD501   0.0000
    15 N7A         -0.7230    38.5920    61.9770 N.2          1 NAD501   0.0000
    16 C5A         -1.2550    38.5030    60.7400 C.ar         1 NAD501   0.0000
    17 C6A         -1.8790    39.4010    59.9080 C.ar         1 NAD501   0.0000
    18 N6A         -2.1190    40.6490    60.3270 N.pl3        1 NAD501   0.0000
    19 N1A         -2.2360    39.0320    58.7070 N.ar         1 NAD501   0.0000
    20 C2A         -1.9950    37.8100    58.2870 C.ar         1 NAD501   0.0000
    21 N3A         -1.3780    36.8890    59.0010 N.ar         1 NAD501   0.0000
    22 C4A         -1.0130    37.1970    60.2210 C.ar         1 NAD501   0.0000
    23 O3           1.0710    30.7920    66.3040 O.3          1 NAD501   0.0000
    24 PN           0.4010    29.3570    66.2240 P.3          1 NAD501   0.0000
    25 O1N          1.1160    28.3510    67.1860 O.co2        1 NAD501   0.0000
    26 O2N          0.2790    28.7860    64.8110 O.co2        1 NAD501  -1.0000
    27 O5D         -1.0280    29.4700    66.9130 O.3          1 NAD501   0.0000
    28 C5D         -2.0710    29.9180    66.0090 C.3          1 NAD501   0.0000
    29 C4D         -3.2780    29.9950    66.9280 C.3          1 NAD501   0.0000
    30 O4D         -3.3540    28.7450    67.6670 O.3          1 NAD501   0.0000
    31 C3D         -2.9980    31.0880    67.9850 C.3          1 NAD501   0.0000
    32 O3D         -4.1490    31.8650    68.2780 O.3          1 NAD501   0.0000
    33 C2D         -2.6020    30.3250    69.2580 C.3          1 NAD501   0.0000
    34 O2D         -2.9240    31.0380    70.4780 O.3          1 NAD501   0.0000
    35 C1D         -3.4490    29.0330    69.0660 C.3          1 NAD501   0.0000
    36 N1N         -2.8440    27.9750    69.9110 N.ar         1 NAD501   1.0000
    37 C2N         -1.6300    27.5220    69.6640 C.ar         1 NAD501   0.0000
    38 C3N         -1.0250    26.5760    70.5050 C.ar         1 NAD501   0.0000
    39 C7N          0.3160    26.0050    70.2410 C.2          1 NAD501   0.0000
    40 O7N          0.7670    25.1230    70.9880 O.2          1 NAD501   0.0000
    41 N7N          1.0020    26.4310    69.1670 N.am         1 NAD501   0.0000
    42 C4N         -1.7490    26.0890    71.6200 C.ar         1 NAD501   0.0000
    43 C5N         -3.0220    26.6000    71.8290 C.ar         1 NAD501   0.0000
    44 C6N         -3.5320    27.5540    70.9590 C.ar         1 NAD501   0.0000
    45 H5B1         1.0332    33.4797    64.3962 H            1 NAD501   0.0000
    46 H5B2        -0.4507    32.8064    64.2892 H            1 NAD501   0.0000
    47 H4B         -0.0364    32.5567    61.8621 H            1 NAD501   0.0000
    48 H3B          2.4523    33.4953    62.5466 H            1 NAD501   0.0000
    49 H5           1.3423    33.0031    59.9975 H            1 NAD501   0.0000
    50 H2B          1.8223    35.6823    62.2754 H            1 NAD501   0.0000
    51 H7           2.2483    34.9211    59.5909 H            1 NAD501   0.0000
    52 H1B         -0.1019    34.7353    60.2635 H            1 NAD501   0.0000
    53 H8A          0.2238    37.1793    63.1112 H            1 NAD501   0.0000
    54 H6A1        -2.5732    41.3014    59.7204 H            1 NAD501   0.0000
    55 H6A2        -1.8441    40.9292    61.2468 H            1 NAD501   0.0000
    56 H2A         -2.2991    37.5629    57.3669 H            1 NAD501   0.0000
    57 H5D1        -2.2185    29.2600    65.2706 H            1 NAD501   0.0000
    58 H5D2        -1.8538    30.8130    65.6195 H            1 NAD501   0.0000
    59 H4D         -4.1199    30.1773    66.4200 H            1 NAD501   0.0000
    60 H3D         -2.2477    31.6773    67.6854 H            1 NAD501   0.0000
    61 H17         -4.9194    31.5394    67.7298 H            1 NAD501   0.0000
    62 H2D         -1.6271    30.1032    69.2366 H            1 NAD501   0.0000
    63 H19         -2.4412    31.9137    70.4896 H            1 NAD501   0.0000
    64 H1D         -4.4004    29.1930    69.3290 H            1 NAD501   0.0000
    65 H2N         -1.1328    27.8584    68.8642 H            1 NAD501   0.0000
    66 H7N1         1.9088    26.0572    68.9724 H            1 NAD501   0.0000
    67 H7N2         0.6057    27.1219    68.5623 H            1 NAD501   0.0000
    68 H4N         -1.3579    25.4030    72.2335 H            1 NAD501   0.0000
    69 H5N         -3.5697    26.2824    72.6030 H            1 NAD501   0.0000
    70 H6N         -4.4420    27.9322    71.1289 H            1 NAD501   0.0000
@<TRIPOS>BOND
     1    1    2      ar
     2    1    3      ar
     3    1    4       1
     4    1   23       1
     5    4    5       1
     6    5    6       1
     7    6    7       1
     8    6    8       1
     9    7   12       1
    10    8    9       1
    11    8   10       1
    12   10   11       1
    13   10   12       1
    14   12   13       1
    15   13   14       1
    16   13   22       1
    17   14   15       2
    18   15   16       1
    19   16   17      ar
    20   16   22      ar
    21   17   18       1
    22   17   19      ar
    23   19   20      ar
    24   20   21      ar
    25   21   22      ar
    26   23   24       1
    27   24   25      ar
    28   24   26      ar
    29   24   27       1
    30   27   28       1
    31   28   29       1
    32   29   30       1
    33   29   31       1
    34   30   35       1
    35   31   32       1
    36   31   33       1
    37   33   34       1
    38   33   35       1
    39   35   36       1
    40   36   37      ar
    41   36   44      ar
    42   37   38      ar
    43   38   39       1
    44   38   42      ar
    45   39   40       2
    46   39   41      am
    47   42   43      ar
    48   43   44      ar
    49   44   70       1
    50    5   45       1
    51    5   46       1
    52    6   47       1
    53    8   48       1
    54    9   49       1
    55   10   50       1
    56   11   51       1
    57   12   52       1
    58   14   53       1
    59   18   54       1
    60   18   55       1
    61   20   56       1
    62   43   69       1
    63   28   57       1
    64   28   58       1
    65   29   59       1
    66   31   60       1
    67   32   61       1
    68   33   62       1
    69   34   63       1
    70   35   64       1
    71   37   65       1
    72   41   66       1
    73   41   67       1
    74   42   68       1
@<TRIPOS>SUBSTRUCTURE
     1 NAD501      1 GROUP             4 C     NAD     0 **** NAD C 501
