@<TRIPOS>MOLECULE
3lki_ATP_1_ligand
   43    45     1     0     0
SMALL
NO_CHARGES


@<TRIPOS>ATOM
     1 PG          20.6330     4.3560    23.9870 P.3          1 ATP900   0.0000
     2 O1G         19.2800     3.7010    23.9490 O.co2        1 ATP900   0.0000
     3 O2G         20.6390     5.6730    24.7520 O.co2        1 ATP900  -1.0000
     4 O3G         21.6630     3.3800    24.5800 O.co2        1 ATP900  -1.0000
     5 PB          20.4550     4.0410    21.0600 P.3          1 ATP900   0.0000
     6 O1B         20.7510     2.5600    20.8960 O.co2        1 ATP900   0.0000
     7 O2B         19.0700     4.5780    20.9680 O.co2        1 ATP900  -1.0000
     8 O3B         21.0100     4.6530    22.4610 O.3          1 ATP900   0.0000
     9 PA          22.4700     4.3760    18.9580 P.3          1 ATP900   0.0000
    10 O1A         23.4960     3.4730    19.5950 O.co2        1 ATP900   0.0000
    11 O2A         21.7080     3.9200    17.7530 O.co2        1 ATP900  -1.0000
    12 O3A         21.3630     4.8710    20.0460 O.3          1 ATP900   0.0000
    13 O5'         22.7900     6.2140    18.8380 O.3          1 ATP900   0.0000
    14 C5'         23.0460     7.5280    19.2440 C.3          1 ATP900   0.0000
    15 C4'         23.7250     8.2920    18.1270 C.3          1 ATP900   0.0000
    16 O4'         25.0480     8.2820    18.6880 O.3          1 ATP900   0.0000
    17 C3'         23.9810     7.5700    16.7770 C.3          1 ATP900   0.0000
    18 O3'         22.9720     7.7930    15.8140 O.3          1 ATP900   0.0000
    19 C2'         25.3040     8.0980    16.4010 C.3          1 ATP900   0.0000
    20 O2'         25.1830     9.3960    15.7730 O.3          1 ATP900   0.0000
    21 C1'         26.0630     8.1280    17.6970 C.3          1 ATP900   0.0000
    22 N9          26.7980     6.7870    17.8650 N.pl3        1 ATP900   0.0000
    23 C8          26.4590     5.6840    18.6390 C.2          1 ATP900   0.0000
    24 N7          27.3700     4.6770    18.5270 N.2          1 ATP900   0.0000
    25 C5          28.3120     5.1040    17.6890 C.ar         1 ATP900   0.0000
    26 C6          29.5870     4.5730    17.1100 C.ar         1 ATP900   0.0000
    27 N6          30.0040     3.3360    17.4490 N.pl3        1 ATP900   0.0000
    28 N1          30.3260     5.3790    16.2170 N.ar         1 ATP900   0.0000
    29 C2          29.9310     6.6670    15.8400 C.ar         1 ATP900   0.0000
    30 N3          28.7710     7.2160    16.3380 N.ar         1 ATP900   0.0000
    31 C4          27.9480     6.5000    17.2470 C.ar         1 ATP900   0.0000
    32 H5'1        23.6417     7.5164    20.0471 H            1 ATP900   0.0000
    33 H5'2        22.1831     7.9772    19.4756 H            1 ATP900   0.0000
    34 H4'         23.3597     9.2155    18.0103 H            1 ATP900   0.0000
    35 H3'         24.0590     6.5871    16.9440 H            1 ATP900   0.0000
    36 H5          22.9029     6.9967    15.2131 H            1 ATP900   0.0000
    37 H2'         25.7487     7.4628    15.7695 H            1 ATP900   0.0000
    38 H7          24.7510    10.0352    16.4093 H            1 ATP900   0.0000
    39 H1'         26.7051     8.8943    17.7190 H            1 ATP900   0.0000
    40 H9          25.6409     5.6349    19.2120 H            1 ATP900   0.0000
    41 H10         30.8541     2.9729    17.0675 H            1 ATP900   0.0000
    42 H11         29.4631     2.7820    18.0818 H            1 ATP900   0.0000
    43 H12         30.4956     7.1929    15.2039 H            1 ATP900   0.0000
@<TRIPOS>BOND
     1    1    2      ar
     2    1    3      ar
     3    1    4      ar
     4    1    8       1
     5    5    6      ar
     6    5    7      ar
     7    5    8       1
     8    5   12       1
     9    9   10      ar
    10    9   11      ar
    11    9   12       1
    12    9   13       1
    13   13   14       1
    14   14   15       1
    15   15   16       1
    16   15   17       1
    17   16   21       1
    18   17   18       1
    19   17   19       1
    20   19   20       1
    21   19   21       1
    22   21   22       1
    23   22   23       1
    24   22   31       1
    25   23   24       2
    26   24   25       1
    27   25   26      ar
    28   25   31      ar
    29   26   27       1
    30   26   28      ar
    31   28   29      ar
    32   29   30      ar
    33   30   31      ar
    34   29   43       1
    35   27   42       1
    36   27   41       1
    37   23   40       1
    38   14   32       1
    39   14   33       1
    40   15   34       1
    41   17   35       1
    42   18   36       1
    43   19   37       1
    44   20   38       1
    45   21   39       1
@<TRIPOS>SUBSTRUCTURE
     1 ATP900      1 GROUP             4 B     ATP     0 **** ATP B 900
