@<TRIPOS>MOLECULE
4p0g_BLG_1_ligand
   63    64     1     0     0
SMALL
NO_CHARGES


@<TRIPOS>ATOM
     1 C1          -2.1470   -27.1060    -9.9190 C.3          1 BLG501   0.0000
     2 C2          -3.6140   -26.7830   -10.5070 C.3          1 BLG501   0.0000
     3 C3          -4.4940   -26.4340    -9.2000 C.3          1 BLG501   0.0000
     4 C4          -4.3030   -27.3380    -8.0250 C.3          1 BLG501   0.0000
     5 C5          -2.9110   -27.4730    -7.8000 C.3          1 BLG501   0.0000
     6 O5          -2.1050   -27.9940    -8.7400 O.3          1 BLG501   0.0000
     7 O1          -1.5050   -27.7070   -10.9360 O.3          1 BLG501   0.0000
     8 N2          -3.4890   -25.7800   -11.2420 N.am         1 BLG501   0.0000
     9 C7          -4.0430   -25.7520   -12.5730 C.2          1 BLG501   0.0000
    10 O7          -4.6630   -26.6960   -13.0310 O.2          1 BLG501   0.0000
    11 C8          -3.8270   -24.4870   -13.4110 C.3          1 BLG501   0.0000
    12 O3          -5.8210   -26.4640    -9.6280 O.3          1 BLG501   0.0000
    13 O4          -4.9590   -26.7440    -6.8330 O.3          1 BLG501   0.0000
    14 S4          -6.1300   -27.4860    -6.2100 S.o2         1 BLG501   0.0000
    15 O41         -7.1790   -27.7960    -7.2470 O.co2        1 BLG501   0.0000
    16 O42         -6.8620   -26.5640    -5.2590 O.co2        1 BLG501   0.0000
    17 O43         -5.6090   -28.7420    -5.5610 O.co2        1 BLG501  -1.0000
    18 C6          -2.6090   -28.3310    -6.3480 C.3          1 BLG501   0.0000
    19 O6          -3.2360   -29.6020    -6.4030 O.3          1 BLG501   0.0000
    20 CA           0.2200   -26.8080   -12.4670 C.3          1 BLG501   0.0000
    21 CB          -0.0590   -27.2800   -11.0450 C.3          1 BLG501   0.0000
    22 CG           0.7210   -28.3250   -10.8940 C.3          1 BLG501   0.0000
    23 CD           2.1170   -27.9340   -11.6730 C.3          1 BLG501   0.0000
    24 N            1.7190   -27.1710   -12.7060 N.4          1 BLG501   1.0000
    25 C9           0.0050   -25.4150   -12.6460 C.3          1 BLG501   0.0000
    26 O9           1.0400   -24.6420   -12.0600 O.3          1 BLG501   0.0000
    27 C10          2.9880   -29.0990   -12.1590 C.2          1 BLG501   0.0000
    28 O10          2.4900   -30.0360   -12.7400 O.2          1 BLG501   0.0000
    29 N3           4.4110   -29.0300   -11.9300 N.am         1 BLG501   0.0000
    30 C11          5.3030   -30.0690   -12.3960 C.3          1 BLG501   0.0000
    31 C12          5.4660   -31.2010   -11.3780 C.3          1 BLG501   0.0000
    32 S            6.5610   -32.3980   -12.1420 S.o2         1 BLG501   0.0000
    33 OS1          5.8290   -33.1490   -13.2370 O.co2        1 BLG501   0.0000
    34 OS2          6.9340   -33.5120   -11.1880 O.co2        1 BLG501   0.0000
    35 OS3          7.7870   -31.7000   -12.6920 O.co2        1 BLG501  -1.0000
    36 H1          -1.6842   -26.2470    -9.7001 H            1 BLG501   0.0000
    37 H2          -3.9905   -27.5625   -11.0077 H            1 BLG501   0.0000
    38 H3          -4.2770   -25.5001    -8.9159 H            1 BLG501   0.0000
    39 H4          -4.7024   -28.2339    -8.2194 H            1 BLG501   0.0000
    40 H5          -2.5731   -26.5455    -7.6398 H            1 BLG501   0.0000
    41 H6          -2.9948   -24.9807   -10.9002 H            1 BLG501   0.0000
    42 H7          -4.2596   -24.6017   -14.3052 H            1 BLG501   0.0000
    43 H8          -4.2337   -23.7030   -12.9420 H            1 BLG501   0.0000
    44 H9          -2.8467   -24.3310   -13.5325 H            1 BLG501   0.0000
    45 H10         -6.3620   -25.8246    -9.0817 H            1 BLG501   0.0000
    46 H11         -2.9744   -27.8135    -5.5743 H            1 BLG501   0.0000
    47 H12         -1.6231   -28.4517    -6.2324 H            1 BLG501   0.0000
    48 H13         -4.1636   -29.5323    -6.0359 H            1 BLG501   0.0000
    49 HA          -0.3535   -27.3193   -13.1071 H            1 BLG501   0.0000
    50 HB           0.1586   -26.5672   -10.3783 H            1 BLG501   0.0000
    51 HG1          0.3049   -29.1361   -11.3051 H            1 BLG501   0.0000
    52 HG2          0.8959   -28.4953    -9.9243 H            1 BLG501   0.0000
    53 HD           2.6678   -27.3671   -11.0604 H            1 BLG501   0.0000
    54 H19          2.2701   -26.3376   -12.7478 H            1 BLG501   0.0000
    55 H20         -0.8654   -25.1648   -12.2220 H            1 BLG501   0.0000
    56 H21         -0.0321   -25.2166   -13.6254 H            1 BLG501   0.0000
    57 H22          1.4852   -24.0912   -12.7660 H            1 BLG501   0.0000
    58 H23          4.7892   -28.2459   -11.4379 H            1 BLG501   0.0000
    59 H24          6.2006   -29.6654   -12.5735 H            1 BLG501   0.0000
    60 H25          4.9356   -30.4507   -13.2441 H            1 BLG501   0.0000
    61 H26          4.5798   -31.6188   -11.1779 H            1 BLG501   0.0000
    62 H27          5.8687   -30.8521   -10.5318 H            1 BLG501   0.0000
    63 H28          1.8157   -27.6778   -13.5626 H            1 BLG501   0.0000
@<TRIPOS>BOND
     1    1    2       1
     2    1    6       1
     3    1    7       1
     4    2    3       1
     5    2    8       1
     6    3    4       1
     7    3   12       1
     8    4    5       1
     9    4   13       1
    10    5    6       1
    11    5   18       1
    12    7   21       1
    13    8    9      am
    14    9   10       2
    15    9   11       1
    16   13   14       1
    17   14   15      ar
    18   14   16      ar
    19   14   17      ar
    20   18   19       1
    21   20   21       1
    22   20   24       1
    23   20   25       1
    24   21   22       1
    25   22   23       1
    26   23   24       1
    27   23   27       1
    28   25   26       1
    29   27   28       2
    30   27   29      am
    31   29   30       1
    32   30   31       1
    33   31   32       1
    34   32   33      ar
    35   32   34      ar
    36   32   35      ar
    37    1   36       1
    38    2   37       1
    39    3   38       1
    40    4   39       1
    41    5   40       1
    42    8   41       1
    43   11   42       1
    44   11   43       1
    45   11   44       1
    46   12   45       1
    47   24   63       1
    48   18   46       1
    49   18   47       1
    50   19   48       1
    51   20   49       1
    52   21   50       1
    53   22   51       1
    54   22   52       1
    55   23   53       1
    56   24   54       1
    57   25   55       1
    58   25   56       1
    59   26   57       1
    60   29   58       1
    61   30   59       1
    62   30   60       1
    63   31   61       1
    64   31   62       1
@<TRIPOS>SUBSTRUCTURE
     1 BLG501      1 GROUP             4 A     BLG     0 **** BLG A 501
