@<TRIPOS>MOLECULE
4f32_N32_2_ligand
   57    60     1     0     0
SMALL
NO_CHARGES


@<TRIPOS>ATOM
     1 C1           7.9200     6.8390   -41.6800 C.3          1 N32500   0.0000
     2 O19          7.8510     4.6660   -47.3460 O.2          1 N32500   0.0000
     3 O20          4.4800     2.5560   -46.3110 O.2          1 N32500   0.0000
     4 N28          3.9440     2.8210   -44.1100 N.am         1 N32500   0.0000
     5 C11          4.7530     2.9210   -45.1640 C.2          1 N32500   0.0000
     6 C2           6.0940     3.5860   -44.9530 C.3          1 N32500   0.0000
     7 C3           5.9600     5.0500   -45.3620 C.3          1 N32500   0.0000
     8 C4           7.2620     5.8590   -45.3270 C.3          1 N32500   0.0000
     9 C5           8.2170     5.3380   -46.3610 C.2          1 N32500   0.0000
    10 C6           9.6390     5.6240   -46.1800 C.2          1 N32500   0.0000
    11 C7          10.1360     6.0720   -45.0160 C.2          1 N32500   0.0000
    12 C8           9.3120     6.3790   -43.8090 C.3          1 N32500   0.0000
    13 C9           7.9010     5.7700   -43.9260 C.3          1 N32500   0.0000
    14 C10          7.0330     6.3250   -42.8050 C.3          1 N32500   0.0000
    15 C14          9.9500     5.6500   -42.6210 C.3          1 N32500   0.0000
    16 C15          8.9890     5.8030   -41.4810 C.2          1 N32500   0.0000
    17 C17          9.0530     5.0500   -40.4000 C.2          1 N32500   0.0000
    18 C18          6.9740     7.2880   -45.8070 C.3          1 N32500   0.0000
    19 C28          9.2730     7.8670   -43.5240 C.3          1 N32500   0.0000
    20 C29          8.5820     8.0950   -42.1680 C.3          1 N32500   0.0000
    21 O30          3.2040     0.5160   -42.5870 O.3          1 N32500   0.0000
    22 O31          1.9260     3.8370   -45.8200 O.3          1 N32500   0.0000
    23 O32         -0.3350     3.6210   -46.9800 O.co2        1 N32500   0.0000
    24 O33         -1.6530     1.9870   -46.4250 O.co2        1 N32500  -1.0000
    25 C21         -0.5910     2.6170   -46.2680 C.2          1 N32500   0.0000
    26 C22          0.4510     2.0800   -45.2890 C.ar         1 N32500   0.0000
    27 C23          1.6700     2.7130   -45.1120 C.ar         1 N32500   0.0000
    28 C24          2.6620     2.2010   -44.2680 C.ar         1 N32500   0.0000
    29 C25          2.3200     0.9970   -43.4830 C.ar         1 N32500   0.0000
    30 C26          1.0530     0.3900   -43.6420 C.ar         1 N32500   0.0000
    31 C27          0.1520     0.9440   -44.5420 C.ar         1 N32500   0.0000
    32 H1           7.3987     6.9978   -40.8416 H            1 N32500   0.0000
    33 H2           4.2284     3.1746   -43.2189 H            1 N32500   0.0000
    34 H3           6.7881     3.1378   -45.5164 H            1 N32500   0.0000
    35 H4           6.3560     3.5248   -43.9899 H            1 N32500   0.0000
    36 H5           5.3080     5.4861   -44.7418 H            1 N32500   0.0000
    37 H6           5.6027     5.0790   -46.2955 H            1 N32500   0.0000
    38 H7          10.2624     5.4812   -46.9487 H            1 N32500   0.0000
    39 H8          11.1245     6.2093   -44.9530 H            1 N32500   0.0000
    40 H9           8.0065     4.7943   -43.7340 H            1 N32500   0.0000
    41 H10          6.4738     7.0754   -43.1574 H            1 N32500   0.0000
    42 H11          6.4378     5.6014   -42.4555 H            1 N32500   0.0000
    43 H12         10.8309     6.0638   -42.3913 H            1 N32500   0.0000
    44 H13         10.0824     4.6826   -42.8369 H            1 N32500   0.0000
    45 H14          9.7812     4.3711   -40.3059 H            1 N32500   0.0000
    46 H15          8.3733     5.1580   -39.6745 H            1 N32500   0.0000
    47 H16          7.8187     7.8229   -45.7872 H            1 N32500   0.0000
    48 H17          6.6186     7.2605   -46.7413 H            1 N32500   0.0000
    49 H18          6.2970     7.7117   -45.2052 H            1 N32500   0.0000
    50 H19          8.7607     8.3338   -44.2448 H            1 N32500   0.0000
    51 H20         10.2053     8.2273   -43.4908 H            1 N32500   0.0000
    52 H21          9.2653     8.3854   -41.4981 H            1 N32500   0.0000
    53 H22          7.8904     8.8101   -42.2701 H            1 N32500   0.0000
    54 H23          2.9803    -0.2984   -42.0516 H            1 N32500   0.0000
    55 H24          1.2415     4.1945   -46.4554 H            1 N32500   0.0000
    56 H25          0.8097    -0.4245   -43.1153 H            1 N32500   0.0000
    57 H26         -0.7424     0.5120   -44.6574 H            1 N32500   0.0000
@<TRIPOS>BOND
     1    1   14       1
     2    1   16       1
     3    1   20       1
     4    2    9       2
     5    3    5       2
     6    4    5      am
     7    4   28       1
     8    5    6       1
     9    6    7       1
    10    7    8       1
    11    8    9       1
    12    8   13       1
    13    8   18       1
    14    9   10       1
    15   10   11       2
    16   11   12       1
    17   12   13       1
    18   12   15       1
    19   12   19       1
    20   13   14       1
    21   15   16       1
    22   16   17       2
    23   19   20       1
    24   21   29       1
    25   22   27       1
    26   23   25      ar
    27   24   25      ar
    28   25   26       1
    29   26   27      ar
    30   26   31      ar
    31   27   28      ar
    32   28   29      ar
    33   29   30      ar
    34   30   31      ar
    35    1   32       1
    36    4   33       1
    37    6   34       1
    38    6   35       1
    39    7   36       1
    40    7   37       1
    41   10   38       1
    42   11   39       1
    43   13   40       1
    44   14   41       1
    45   14   42       1
    46   15   43       1
    47   15   44       1
    48   17   45       1
    49   17   46       1
    50   18   47       1
    51   18   48       1
    52   18   49       1
    53   19   50       1
    54   19   51       1
    55   20   52       1
    56   20   53       1
    57   21   54       1
    58   22   55       1
    59   31   57       1
    60   30   56       1
@<TRIPOS>SUBSTRUCTURE
     1 N32500      1 GROUP             4 B     N32     0 **** N32 B 500
