@<TRIPOS>MOLECULE
1z9h_IMN_4_ligand
   40    42     1     0     0
SMALL
NO_CHARGES


@<TRIPOS>ATOM
     1 C           11.6800    54.2570    21.5670 C.ar         1 IMN476   0.0000
     2 C1          12.5640    53.7510    20.4610 C.ar         1 IMN476   0.0000
     3 C2          13.1660    54.7040    19.5440 C.ar         1 IMN476   0.0000
     4 C3          12.9480    56.1120    19.6620 C.ar         1 IMN476   0.0000
     5 C4          12.1210    56.5940    20.7120 C.ar         1 IMN476   0.0000
     6 C5          11.5080    55.7060    21.6290 C.ar         1 IMN476   0.0000
     7 C6          13.4430    58.3950    18.7040 C.3          1 IMN476   0.0000
     8 C7          12.6290    52.2560    20.5570 C.2          1 IMN476   0.0000
     9 C8          11.7610    51.9010    21.7320 C.2          1 IMN476   0.0000
    10 C9          10.3350    53.2200    23.4360 C.2          1 IMN476   0.0000
    11 C10          9.3190    54.3770    23.7920 C.ar         1 IMN476   0.0000
    12 C11          9.6480    55.1160    24.9950 C.ar         1 IMN476   0.0000
    13 C12          8.8420    56.2240    25.4580 C.ar         1 IMN476   0.0000
    14 C13          7.6920    56.6140    24.7110 C.ar         1 IMN476   0.0000
    15 C14          7.3320    55.9100    23.5340 C.ar         1 IMN476   0.0000
    16 C15          8.1370    54.7960    23.0620 C.ar         1 IMN476   0.0000
    17 C16         11.5290    50.4690    22.2060 C.3          1 IMN476   0.0000
    18 C17         13.4720    51.4680    19.5590 C.3          1 IMN476   0.0000
    19 C18         14.9960    51.6390    19.3950 C.2          1 IMN476   0.0000
    20 N           11.2550    53.1180    22.2510 N.pl3        1 IMN476   0.0000
    21 O           13.5520    56.9520    18.7450 O.3          1 IMN476   0.0000
    22 O1          10.3270    52.3110    24.2620 O.2          1 IMN476   0.0000
    23 O2          15.8530    51.6990    20.2820 O.co2        1 IMN476   0.0000
    24 O3          15.4250    51.7620    18.1480 O.co2        1 IMN476  -1.0000
    25 CL           6.7780    57.9650    25.1800 Cl           1 IMN476   0.0000
    26 H1          13.7510    54.3644    18.8075 H            1 IMN476   0.0000
    27 H2          11.9691    57.5780    20.8051 H            1 IMN476   0.0000
    28 H3          10.9316    56.0881    22.3513 H            1 IMN476   0.0000
    29 H4          13.9808    58.7483    17.9386 H            1 IMN476   0.0000
    30 H5          12.4844    58.6536    18.5853 H            1 IMN476   0.0000
    31 H6          13.7885    58.7798    19.5599 H            1 IMN476   0.0000
    32 H7          10.4567    54.8517    25.5206 H            1 IMN476   0.0000
    33 H8           9.0892    56.7124    26.2949 H            1 IMN476   0.0000
    34 H9           6.5163    56.1827    23.0238 H            1 IMN476   0.0000
    35 H10          7.8739    54.3137    22.2264 H            1 IMN476   0.0000
    36 H11         10.9204    50.4750    22.9994 H            1 IMN476   0.0000
    37 H12         11.1110    49.9376    21.4692 H            1 IMN476   0.0000
    38 H13         12.4037    50.0561    22.4600 H            1 IMN476   0.0000
    39 H14         13.0790    51.6609    18.6599 H            1 IMN476   0.0000
    40 H15         13.3299    50.5043    19.7851 H            1 IMN476   0.0000
@<TRIPOS>BOND
     1    1    2      ar
     2    1    6      ar
     3    1   20       1
     4    2    3      ar
     5    2    8       1
     6    3    4      ar
     7    4    5      ar
     8    4   21       1
     9    5    6      ar
    10    7   21       1
    11    8    9       2
    12    8   18       1
    13    9   17       1
    14    9   20       1
    15   10   11       1
    16   10   20       1
    17   10   22       2
    18   11   12      ar
    19   11   16      ar
    20   12   13      ar
    21   13   14      ar
    22   14   15      ar
    23   14   25       1
    24   15   16      ar
    25   18   19       1
    26   19   23      ar
    27   19   24      ar
    28    3   26       1
    29    5   27       1
    30    6   28       1
    31    7   29       1
    32    7   30       1
    33    7   31       1
    34   12   32       1
    35   13   33       1
    36   15   34       1
    37   16   35       1
    38   17   36       1
    39   17   37       1
    40   17   38       1
    41   18   39       1
    42   18   40       1
@<TRIPOS>SUBSTRUCTURE
     1 IMN476      1 GROUP             4 D     IMN     0 **** IMN D 476
