@<TRIPOS>MOLECULE
3f8k_COA_1_ligand
   78    80     1     0     0
SMALL
NO_CHARGES


@<TRIPOS>ATOM
     1 N1A         31.6530     8.8370    19.5460 N.ar         1 COA301   0.0000
     2 C2A         31.8480     8.5350    18.4810 C.ar         1 COA301   0.0000
     3 N3A         31.5630     8.9850    17.3940 N.ar         1 COA301   0.0000
     4 C4A         30.8280    10.1440    17.5760 C.ar         1 COA301   0.0000
     5 C5A         30.4380    10.7570    18.8280 C.ar         1 COA301   0.0000
     6 C6A         30.9010    10.0210    20.0790 C.ar         1 COA301   0.0000
     7 N6A         30.6230    10.4530    21.2690 N.pl3        1 COA301   0.0000
     8 N7A         29.7200    11.8910    18.6370 N.2          1 COA301   0.0000
     9 C8A         29.6360    12.0250    17.2890 C.2          1 COA301   0.0000
    10 N9A         30.2880    10.9980    16.5920 N.pl3        1 COA301   0.0000
    11 C1B         30.3970    10.8120    15.0940 C.3          1 COA301   0.0000
    12 C2B         29.0890    10.9480    14.3510 C.3          1 COA301   0.0000
    13 O2B         28.2500     9.8620    14.7230 O.3          1 COA301   0.0000
    14 C3B         29.5280    10.9630    12.8730 C.3          1 COA301   0.0000
    15 O3B         29.7480     9.6580    12.4150 O.3          1 COA301   0.0000
    16 P3B         30.1710     9.5040    10.7980 P.3          1 COA301   0.0000
    17 O7A         28.8690     9.9700     9.9960 O.co2        1 COA301   0.0000
    18 O8A         30.4060     7.9670    10.4030 O.co2        1 COA301  -1.0000
    19 O9A         31.4150    10.4410    10.4600 O.co2        1 COA301  -1.0000
    20 C4B         30.7620    11.9160    12.9820 C.3          1 COA301   0.0000
    21 O4B         31.2350    11.8000    14.4190 O.3          1 COA301   0.0000
    22 C5B         30.5650    13.4190    12.6680 C.3          1 COA301   0.0000
    23 O5B         29.2000    13.8040    13.0010 O.3          1 COA301   0.0000
    24 P1A         28.5890    15.2420    12.5200 P.3          1 COA301   0.0000
    25 O1A         27.1960    15.3000    13.0430 O.co2        1 COA301   0.0000
    26 O2A         28.7000    15.4290    11.0270 O.co2        1 COA301  -1.0000
    27 O3A         29.3960    16.2930    13.2290 O.3          1 COA301   0.0000
    28 P2A         29.0340    17.2880    14.4700 P.3          1 COA301   0.0000
    29 O4A         28.6160    16.5120    15.6930 O.co2        1 COA301   0.0000
    30 O5A         27.9300    18.2670    14.1460 O.co2        1 COA301  -1.0000
    31 O6A         30.4360    18.0670    14.6130 O.3          1 COA301   0.0000
    32 CBP         32.6510    18.4550    15.6030 C.3          1 COA301   0.0000
    33 CCP         31.7060    17.4420    14.8690 C.3          1 COA301   0.0000
    34 CDP         34.0860    17.8400    15.8580 C.3          1 COA301   0.0000
    35 CEP         32.6760    19.6810    14.6430 C.3          1 COA301   0.0000
    36 CAP         31.9390    18.7180    17.0250 C.3          1 COA301   0.0000
    37 OAP         31.9680    17.5230    17.8800 O.3          1 COA301   0.0000
    38 C9P         32.5860    19.8880    17.7770 C.2          1 COA301   0.0000
    39 O9P         32.1160    21.1340    17.5810 O.2          1 COA301   0.0000
    40 N8P         33.6010    19.5860    18.5630 N.am         1 COA301   0.0000
    41 C7P         34.3850    20.5640    19.3620 C.3          1 COA301   0.0000
    42 C6P         35.2470    21.4370    18.4430 C.3          1 COA301   0.0000
    43 C5P         36.2080    20.6160    17.6220 C.2          1 COA301   0.0000
    44 O5P         36.6770    19.4740    18.0060 O.2          1 COA301   0.0000
    45 N4P         36.5190    21.1870    16.4760 N.am         1 COA301   0.0000
    46 C3P         37.4720    20.6230    15.4240 C.2          1 COA301   0.0000
    47 C2P         38.3050    21.3270    14.6820 C.2          1 COA301   0.0000
    48 S1P         39.5470    20.5760    13.3350 S.3          1 COA301   0.0000
    49 H2A         32.3850     7.6939    18.4160 H            1 COA301   0.0000
    50 H6A1        30.0911    11.2919    21.3848 H            1 COA301   0.0000
    51 H6A2        30.9404     9.9474    22.0713 H            1 COA301   0.0000
    52 H8A         29.1579    12.7792    16.8389 H            1 COA301   0.0000
    53 H1B         30.7712     9.9024    14.9137 H            1 COA301   0.0000
    54 H2B         28.6504    11.8153    14.5864 H            1 COA301   0.0000
    55 H7          27.3772     9.9346    14.2404 H            1 COA301   0.0000
    56 H3B         28.8184    11.3970    12.3179 H            1 COA301   0.0000
    57 H4B         31.4833    11.5636    12.3857 H            1 COA301   0.0000
    58 H5B1        30.7304    13.5818    11.6953 H            1 COA301   0.0000
    59 H5B2        31.2070    13.9608    13.2105 H            1 COA301   0.0000
    60 HCP1        32.1221    17.1663    14.0025 H            1 COA301   0.0000
    61 HCP2        31.5703    16.6359    15.4450 H            1 COA301   0.0000
    62 HDP1        34.6586    18.5129    16.3263 H            1 COA301   0.0000
    63 HDP2        34.0016    17.0212    16.4258 H            1 COA301   0.0000
    64 HDP3        34.5049    17.5972    14.9830 H            1 COA301   0.0000
    65 HEP1        33.2617    20.3941    15.0282 H            1 COA301   0.0000
    66 HEP2        33.0345    19.4000    13.7528 H            1 COA301   0.0000
    67 HEP3        31.7478    20.0361    14.5315 H            1 COA301   0.0000
    68 HAP         30.9821    18.9522    16.8531 H            1 COA301   0.0000
    69 H21         32.9170    17.2569    18.0489 H            1 COA301   0.0000
    70 H8P         33.8639    18.6233    18.6265 H            1 COA301   0.0000
    71 H7P1        34.9777    20.0699    19.9980 H            1 COA301   0.0000
    72 H7P2        33.7569    21.1476    19.8767 H            1 COA301   0.0000
    73 H6P1        35.7690    22.0792    19.0043 H            1 COA301   0.0000
    74 H6P2        34.6473    21.9455    17.8251 H            1 COA301   0.0000
    75 H4P         36.0926    22.0694    16.2770 H            1 COA301   0.0000
    76 H3P         37.4637    19.6327    15.2855 H            1 COA301   0.0000
    77 H2P         38.3096    22.3188    14.8099 H            1 COA301   0.0000
    78 H1P         40.1467    21.1836    12.8142 H            1 COA301   0.0000
@<TRIPOS>BOND
     1    1    2      ar
     2    1    6      ar
     3    2    3      ar
     4    3    4      ar
     5    4    5      ar
     6    4   10       1
     7    5    6      ar
     8    5    8       1
     9    6    7       1
    10    8    9       2
    11    9   10       1
    12   10   11       1
    13   11   12       1
    14   11   21       1
    15   12   13       1
    16   12   14       1
    17   14   15       1
    18   14   20       1
    19   15   16       1
    20   16   17      ar
    21   16   18      ar
    22   16   19      ar
    23   20   21       1
    24   20   22       1
    25   22   23       1
    26   23   24       1
    27   24   25      ar
    28   24   26      ar
    29   24   27       1
    30   27   28       1
    31   28   29      ar
    32   28   30      ar
    33   28   31       1
    34   31   33       1
    35   32   33       1
    36   32   34       1
    37   32   35       1
    38   32   36       1
    39   36   37       1
    40   36   38       1
    41   38   39       2
    42   38   40      am
    43   40   41       1
    44   41   42       1
    45   42   43       1
    46   43   44       2
    47   43   45      am
    48   45   46       1
    49   46   47       2
    50   47   48       1
    51    2   49       1
    52    7   50       1
    53    7   51       1
    54    9   52       1
    55   11   53       1
    56   12   54       1
    57   13   55       1
    58   14   56       1
    59   48   78       1
    60   47   77       1
    61   20   57       1
    62   22   58       1
    63   22   59       1
    64   46   76       1
    65   45   75       1
    66   33   60       1
    67   33   61       1
    68   34   62       1
    69   34   63       1
    70   34   64       1
    71   35   65       1
    72   35   66       1
    73   35   67       1
    74   36   68       1
    75   37   69       1
    76   40   70       1
    77   41   71       1
    78   41   72       1
    79   42   73       1
    80   42   74       1
@<TRIPOS>SUBSTRUCTURE
     1 COA301      1 GROUP             4 A     COA     0 **** COA A 301
