@<TRIPOS>MOLECULE
2cwf_NDP_1_ligand
   73    77     1     0     0
SMALL
NO_CHARGES


@<TRIPOS>ATOM
     1 PA          30.2250    51.3470    37.4400 P.3          1 NDP2510   0.0000
     2 O1A         31.5370    51.2110    38.1150 O.co2        1 NDP2510   0.0000
     3 O2A         29.0350    50.5750    37.8980 O.co2        1 NDP2510  -1.0000
     4 O5B         29.7910    50.9450    35.7760 O.3          1 NDP2510   0.0000
     5 C5B         30.6530    51.4450    34.8930 C.3          1 NDP2510   0.0000
     6 C4B         29.7580    50.8350    33.7230 C.3          1 NDP2510   0.0000
     7 O4B         30.4200    49.5120    33.7850 O.3          1 NDP2510   0.0000
     8 C3B         28.5360    50.7250    32.9200 C.3          1 NDP2510   0.0000
     9 O3B         28.7580    51.0730    31.5920 O.3          1 NDP2510   0.0000
    10 C2B         28.2210    49.2850    33.2810 C.3          1 NDP2510   0.0000
    11 O2B         27.1050    48.6980    32.7170 O.3          1 NDP2510   0.0000
    12 C1B         29.5950    48.5690    33.0840 C.3          1 NDP2510   0.0000
    13 N9A         29.7390    47.3070    33.8680 N.pl3        1 NDP2510   0.0000
    14 C8A         29.6740    47.2090    35.2710 C.2          1 NDP2510   0.0000
    15 N7A         29.8280    45.9900    35.7350 N.2          1 NDP2510   0.0000
    16 C5A         30.0000    45.2400    34.6180 C.ar         1 NDP2510   0.0000
    17 C6A         30.2160    43.8310    34.4300 C.ar         1 NDP2510   0.0000
    18 N6A         30.2800    42.9930    35.4810 N.pl3        1 NDP2510   0.0000
    19 N1A         30.3570    43.3590    33.1260 N.ar         1 NDP2510   0.0000
    20 C2A         30.2920    44.2190    32.0490 C.ar         1 NDP2510   0.0000
    21 N3A         30.0900    45.5820    32.1210 N.ar         1 NDP2510   0.0000
    22 C4A         29.9520    46.0280    33.4350 C.ar         1 NDP2510   0.0000
    23 O3          29.7510    52.8760    37.4030 O.3          1 NDP2510   0.0000
    24 PN          30.5470    54.1670    38.0340 P.3          1 NDP2510   0.0000
    25 O1N         31.7110    54.3600    37.3750 O.co2        1 NDP2510   0.0000
    26 O2N         30.3660    53.9870    39.3530 O.co2        1 NDP2510  -1.0000
    27 O5D         29.2580    55.2430    37.4630 O.3          1 NDP2510   0.0000
    28 C5D         27.8500    55.4370    37.8430 C.3          1 NDP2510   0.0000
    29 C4D         27.7750    56.8100    37.4220 C.3          1 NDP2510   0.0000
    30 O4D         27.6180    58.1110    38.0190 O.3          1 NDP2510   0.0000
    31 C3D         27.6340    57.0660    35.8860 C.3          1 NDP2510   0.0000
    32 O3D         26.3080    56.9000    35.3890 O.3          1 NDP2510   0.0000
    33 C2D         28.1930    58.4500    35.7390 C.3          1 NDP2510   0.0000
    34 O2D         27.8170    59.1010    34.5630 O.3          1 NDP2510   0.0000
    35 C1D         27.7610    59.1140    37.0280 C.3          1 NDP2510   0.0000
    36 N1N         28.7020    60.1780    37.4060 N.ar         1 NDP2510   1.0000
    37 C2N         28.2330    61.4660    37.1000 C.ar         1 NDP2510   0.0000
    38 C3N         29.0020    62.5970    37.3900 C.ar         1 NDP2510   0.0000
    39 C7N         28.5050    63.9950    37.0590 C.2          1 NDP2510   0.0000
    40 O7N         29.1697    65.0045    37.3993 O.2          1 NDP2510   0.0000
    41 N7N         27.3495    64.0915    36.4011 N.am         1 NDP2510   0.0000
    42 C4N         30.3000    62.4030    38.0170 C.ar         1 NDP2510   0.0000
    43 C5N         30.7700    61.0790    38.3250 C.ar         1 NDP2510   0.0000
    44 C6N         29.9710    59.9610    38.0190 C.ar         1 NDP2510   0.0000
    45 P2B         25.8840    48.9810    33.2840 P.3          1 NDP2510   0.0000
    46 O1X         25.3170    50.4570    33.2290 O.co2        1 NDP2510   0.0000
    47 O2X         24.7660    47.9990    32.6070 O.co2        1 NDP2510  -1.0000
    48 O3X         25.7610    48.5890    34.8330 O.co2        1 NDP2510  -1.0000
    49 H5B1        31.5738    51.0594    34.9517 H            1 NDP2510   0.0000
    50 H5B2        30.7092    52.4434    34.8914 H            1 NDP2510   0.0000
    51 H4B         30.3258    51.1875    32.9791 H            1 NDP2510   0.0000
    52 H3B         27.8331    51.3231    33.3049 H            1 NDP2510   0.0000
    53 H5          27.9049    50.9860    31.0775 H            1 NDP2510   0.0000
    54 H2B         28.0561    49.2845    34.2673 H            1 NDP2510   0.0000
    55 H1B         29.8487    48.4646    32.1224 H            1 NDP2510   0.0000
    56 H8A         29.5234    48.0002    35.8638 H            1 NDP2510   0.0000
    57 H6A1        30.4308    42.0156    35.3327 H            1 NDP2510   0.0000
    58 H6A2        30.1767    43.3477    36.4103 H            1 NDP2510   0.0000
    59 H2A         30.4006    43.8203    31.1383 H            1 NDP2510   0.0000
    60 H5D1        27.6946    55.3238    38.8243 H            1 NDP2510   0.0000
    61 H5D2        27.2265    54.8419    37.3360 H            1 NDP2510   0.0000
    62 H4D         28.7705    56.8985    37.3885 H            1 NDP2510   0.0000
    63 H3D         28.2349    56.4293    35.4028 H            1 NDP2510   0.0000
    64 H16         26.2959    57.0792    34.4053 H            1 NDP2510   0.0000
    65 H2D         29.1906    58.3815    35.7474 H            1 NDP2510   0.0000
    66 H18         27.6722    58.4257    33.8398 H            1 NDP2510   0.0000
    67 H1D         26.8649    59.5313    36.8771 H            1 NDP2510   0.0000
    68 H2N         27.3373    61.5755    36.6691 H            1 NDP2510   0.0000
    69 H7N1        26.9841    64.9910    36.1617 H            1 NDP2510   0.0000
    70 H7N2        26.8481    63.2644    36.1472 H            1 NDP2510   0.0000
    71 H4N         30.8695    63.1955    38.2354 H            1 NDP2510   0.0000
    72 H5N         31.6634    60.9527    38.7561 H            1 NDP2510   0.0000
    73 H6N         30.2864    59.0351    38.2270 H            1 NDP2510   0.0000
@<TRIPOS>BOND
     1    1    2      ar
     2    1    3      ar
     3    1    4       1
     4    1   23       1
     5    4    5       1
     6    5    6       1
     7    6    7       1
     8    6    8       1
     9    7   12       1
    10    8    9       1
    11    8   10       1
    12   10   11       1
    13   10   12       1
    14   11   45       1
    15   12   13       1
    16   13   14       1
    17   13   22       1
    18   14   15       2
    19   15   16       1
    20   16   17      ar
    21   16   22      ar
    22   17   18       1
    23   17   19      ar
    24   19   20      ar
    25   20   21      ar
    26   21   22      ar
    27   23   24       1
    28   24   25      ar
    29   24   26      ar
    30   24   27       1
    31   27   28       1
    32   28   29       1
    33   29   30       1
    34   29   31       1
    35   30   35       1
    36   31   32       1
    37   31   33       1
    38   33   34       1
    39   33   35       1
    40   35   36       1
    41   36   37      ar
    42   36   44      ar
    43   37   38      ar
    44   38   39       1
    45   38   42      ar
    46   39   40       2
    47   39   41      am
    48   42   43      ar
    49   43   44      ar
    50   45   46      ar
    51   45   47      ar
    52   45   48      ar
    53   43   72       1
    54    5   49       1
    55    5   50       1
    56    6   51       1
    57    8   52       1
    58    9   53       1
    59   10   54       1
    60   12   55       1
    61   14   56       1
    62   18   57       1
    63   18   58       1
    64   20   59       1
    65   44   73       1
    66   28   60       1
    67   28   61       1
    68   29   62       1
    69   31   63       1
    70   32   64       1
    71   33   65       1
    72   34   66       1
    73   35   67       1
    74   37   68       1
    75   41   69       1
    76   41   70       1
    77   42   71       1
@<TRIPOS>SUBSTRUCTURE
     1 NDP2510     1 GROUP             4 A     NDP     0 **** NDP A2510
