@<TRIPOS>MOLECULE
4l80_1VU_5_ligand
   88    90     1     0     0
SMALL
NO_CHARGES


@<TRIPOS>ATOM
     1 O14        -25.3890   -51.3890    26.6880 O.co2        1 1VU401   0.0000
     2 P2         -24.8230   -50.8640    27.9400 P.3          1 1VU401   0.0000
     3 O15        -23.5650   -51.7560    28.3290 O.co2        1 1VU401  -1.0000
     4 O16        -24.4360   -49.3150    27.8240 O.co2        1 1VU401  -1.0000
     5 O13        -26.0250   -50.7870    28.9840 O.3          1 1VU401   0.0000
     6 C23        -26.0850   -49.6050    29.7590 C.3          1 1VU401   0.0000
     7 C22        -26.7460   -48.4670    29.0350 C.3          1 1VU401   0.0000
     8 O12        -26.7130   -48.6610    27.6360 O.3          1 1VU401   0.0000
     9 C16        -28.1280   -48.3310    29.6470 C.3          1 1VU401   0.0000
    10 N2         -28.4400   -46.9130    29.8330 N.pl3        1 1VU401   0.0000
    11 C21        -29.5640   -46.2930    29.5320 C.ar         1 1VU401   0.0000
    12 N6         -30.7390   -46.6710    29.0100 N.ar         1 1VU401   0.0000
    13 C20        -31.7240   -45.8060    28.7940 C.ar         1 1VU401   0.0000
    14 N5         -31.5910   -44.5380    29.1020 N.ar         1 1VU401   0.0000
    15 C19        -30.4510   -44.0990    29.6380 C.ar         1 1VU401   0.0000
    16 N4         -30.3210   -42.8100    29.9600 N.pl3        1 1VU401   0.0000
    17 C18        -29.4110   -44.9680    29.8650 C.ar         1 1VU401   0.0000
    18 N3         -28.1920   -44.8290    30.3650 N.2          1 1VU401   0.0000
    19 C17        -27.5930   -46.0260    30.3500 C.2          1 1VU401   0.0000
    20 O11        -27.9510   -48.8360    30.9220 O.3          1 1VU401   0.0000
    21 C15        -26.9510   -49.8230    30.9530 C.3          1 1VU401   0.0000
    22 C14        -26.1240   -49.5880    32.1630 C.3          1 1VU401   0.0000
    23 O10        -25.6110   -48.3050    31.9280 O.3          1 1VU401   0.0000
    24 P1         -24.8660   -47.5440    33.0890 P.3          1 1VU401   0.0000
    25 O8         -25.7840   -47.1650    34.1390 O.co2        1 1VU401   0.0000
    26 O9         -23.6630   -48.4250    33.6580 O.co2        1 1VU401  -1.0000
    27 O7         -24.2380   -46.2890    32.3460 O.3          1 1VU401   0.0000
    28 P          -23.0340   -46.3460    31.3130 P.3          1 1VU401   0.0000
    29 O5         -21.8550   -46.5500    32.1120 O.co2        1 1VU401   0.0000
    30 O6         -23.2120   -47.3900    30.1310 O.co2        1 1VU401  -1.0000
    31 O4         -23.1870   -44.9670    30.5330 O.3          1 1VU401   0.0000
    32 C13        -23.1110   -43.7520    31.2200 C.3          1 1VU401   0.0000
    33 C10        -23.7320   -42.6080    30.4450 C.3          1 1VU401   0.0000
    34 C11        -23.5100   -41.3900    31.3050 C.3          1 1VU401   0.0000
    35 C12        -22.9760   -42.4150    29.1490 C.3          1 1VU401   0.0000
    36 C9         -25.2340   -42.8140    30.1900 C.3          1 1VU401   0.0000
    37 O3         -25.9500   -43.1850    31.3540 O.3          1 1VU401   0.0000
    38 C8         -25.8250   -41.5530    29.6260 C.2          1 1VU401   0.0000
    39 O2         -25.4570   -41.1910    28.5560 O.2          1 1VU401   0.0000
    40 N1         -26.7040   -40.9080    30.3730 N.am         1 1VU401   0.0000
    41 C7         -27.3560   -39.6800    30.0410 C.3          1 1VU401   0.0000
    42 C6         -26.6550   -38.4440    30.5550 C.3          1 1VU401   0.0000
    43 C5         -27.4460   -37.2300    30.1380 C.2          1 1VU401   0.0000
    44 O1         -28.4560   -37.3510    29.5420 O.2          1 1VU401   0.0000
    45 N          -26.9240   -36.0800    30.4980 N.am         1 1VU401   0.0000
    46 C4         -27.5440   -34.8050    30.3540 C.3          1 1VU401   0.0000
    47 C3         -28.1610   -34.2970    31.6460 C.3          1 1VU401   0.0000
    48 S          -26.9330   -33.8290    32.8040 S.3          1 1VU401   0.0000
    49 C2         -26.1950   -32.4390    32.2870 C.2          1 1VU401   0.0000
    50 O          -26.4440   -32.0060    31.1880 O.2          1 1VU401   0.0000
    51 C1         -25.2030   -31.7540    33.2230 C.3          1 1VU401   0.0000
    52 C          -24.6600   -32.6530    34.2980 C.3          1 1VU401   0.0000
    53 H1         -25.1654   -49.3384    30.0477 H            1 1VU401   0.0000
    54 H2         -26.2348   -47.6328    29.2418 H            1 1VU401   0.0000
    55 H3         -25.8991   -49.1882    27.3917 H            1 1VU401   0.0000
    56 H4         -28.8314   -48.8189    29.1302 H            1 1VU401   0.0000
    57 H5         -32.5807   -46.1269    28.3901 H            1 1VU401   0.0000
    58 H6         -29.4674   -42.4787    30.3619 H            1 1VU401   0.0000
    59 H7         -31.0773   -42.1758    29.7993 H            1 1VU401   0.0000
    60 H8         -26.6666   -46.2207    30.6724 H            1 1VU401   0.0000
    61 H9         -27.3457   -50.7418    30.9541 H            1 1VU401   0.0000
    62 H10        -25.3904   -50.2635    32.2374 H            1 1VU401   0.0000
    63 H11        -26.6817   -49.6089    32.9928 H            1 1VU401   0.0000
    64 H12        -22.1488   -43.5393    31.3900 H            1 1VU401   0.0000
    65 H13        -23.5907   -43.8462    32.0923 H            1 1VU401   0.0000
    66 H14        -23.8980   -40.5871    30.8524 H            1 1VU401   0.0000
    67 H15        -23.9558   -41.5214    32.1905 H            1 1VU401   0.0000
    68 H16        -22.5290   -41.2535    31.4427 H            1 1VU401   0.0000
    69 H17        -23.3834   -41.6603    28.6347 H            1 1VU401   0.0000
    70 H18        -22.0194   -42.2037    29.3494 H            1 1VU401   0.0000
    71 H19        -23.0255   -43.2534    28.6062 H            1 1VU401   0.0000
    72 H20        -25.3401   -43.5409    29.5115 H            1 1VU401   0.0000
    73 H21        -26.7309   -43.7546    31.0976 H            1 1VU401   0.0000
    74 H22        -26.9352   -41.3184    31.2551 H            1 1VU401   0.0000
    75 H23        -28.2780   -39.7006    30.4277 H            1 1VU401   0.0000
    76 H24        -27.4137   -39.6156    29.0447 H            1 1VU401   0.0000
    77 H25        -25.7340   -38.3944    30.1686 H            1 1VU401   0.0000
    78 H26        -26.5964   -38.4809    31.5526 H            1 1VU401   0.0000
    79 H27        -26.0125   -36.1008    30.9088 H            1 1VU401   0.0000
    80 H28        -28.2638   -34.8766    29.6635 H            1 1VU401   0.0000
    81 H29        -26.8545   -34.1477    30.0499 H            1 1VU401   0.0000
    82 H30        -28.7237   -35.0215    32.0441 H            1 1VU401   0.0000
    83 H31        -28.7345   -33.5036    31.4421 H            1 1VU401   0.0000
    84 H32        -25.6645   -30.9826    33.6610 H            1 1VU401   0.0000
    85 H33        -24.4359   -31.4172    32.6770 H            1 1VU401   0.0000
    86 H34        -24.0202   -32.1397    34.8701 H            1 1VU401   0.0000
    87 H35        -25.4135   -32.9914    34.8616 H            1 1VU401   0.0000
    88 H36        -24.1849   -33.4260    33.8776 H            1 1VU401   0.0000
@<TRIPOS>BOND
     1    1    2      ar
     2    2    3      ar
     3    2    4      ar
     4    2    5       1
     5    5    6       1
     6    6    7       1
     7    6   21       1
     8    7    8       1
     9    7    9       1
    10    9   10       1
    11    9   20       1
    12   10   11       1
    13   10   19       1
    14   11   12      ar
    15   11   17      ar
    16   12   13      ar
    17   13   14      ar
    18   14   15      ar
    19   15   16       1
    20   15   17      ar
    21   17   18       1
    22   18   19       2
    23   20   21       1
    24   21   22       1
    25   22   23       1
    26   23   24       1
    27   24   25      ar
    28   24   26      ar
    29   24   27       1
    30   27   28       1
    31   28   29      ar
    32   28   30      ar
    33   28   31       1
    34   31   32       1
    35   32   33       1
    36   33   34       1
    37   33   35       1
    38   33   36       1
    39   36   37       1
    40   36   38       1
    41   38   39       2
    42   38   40      am
    43   40   41       1
    44   41   42       1
    45   42   43       1
    46   43   44       2
    47   43   45      am
    48   45   46       1
    49   46   47       1
    50   47   48       1
    51   48   49       1
    52   49   50       2
    53   49   51       1
    54   51   52       1
    55   52   88       1
    56   52   87       1
    57    6   53       1
    58    7   54       1
    59    8   55       1
    60    9   56       1
    61   13   57       1
    62   16   58       1
    63   16   59       1
    64   19   60       1
    65   21   61       1
    66   22   62       1
    67   22   63       1
    68   52   86       1
    69   51   85       1
    70   32   64       1
    71   32   65       1
    72   34   66       1
    73   34   67       1
    74   34   68       1
    75   35   69       1
    76   35   70       1
    77   35   71       1
    78   36   72       1
    79   37   73       1
    80   40   74       1
    81   41   75       1
    82   41   76       1
    83   42   77       1
    84   42   78       1
    85   45   79       1
    86   46   80       1
    87   46   81       1
    88   47   82       1
    89   47   83       1
    90   51   84       1
@<TRIPOS>SUBSTRUCTURE
     1 1VU401      1 GROUP             4 E     1VU     0 **** 1VU E 401
