@<TRIPOS>MOLECULE
3zj0_ACO_1_ligand
   85    87     1     0     0
SMALL
NO_CHARGES


@<TRIPOS>ATOM
     1 N1A         10.9370    25.2890     8.9190 N.ar         1 ACO1205   0.0000
     2 C2A         11.5230    26.4100     8.3140 C.ar         1 ACO1205   0.0000
     3 N3A         11.1850    27.6760     8.8270 N.ar         1 ACO1205   0.0000
     4 C4A         10.3200    27.7710     9.8580 C.ar         1 ACO1205   0.0000
     5 C5A          9.7750    26.6860    10.4110 C.ar         1 ACO1205   0.0000
     6 C6A         10.0870    25.4730     9.9470 C.ar         1 ACO1205   0.0000
     7 N6A          9.4920    24.4540    10.5640 N.pl3        1 ACO1205   0.0000
     8 N7A          8.9750    27.0790    11.4100 N.2          1 ACO1205   0.0000
     9 C8A          9.0180    28.4120    11.4780 C.2          1 ACO1205   0.0000
    10 N9A          9.8450    28.8200    10.5210 N.pl3        1 ACO1205   0.0000
    11 C1B         10.1030    30.2010    10.2880 C.3          1 ACO1205   0.0000
    12 C2B          8.7690    30.8900     9.9440 C.3          1 ACO1205   0.0000
    13 O2B          8.4870    30.9020     8.5270 O.3          1 ACO1205   0.0000
    14 C3B          9.0730    32.2630    10.4060 C.3          1 ACO1205   0.0000
    15 O3B         10.0540    32.8030     9.5410 O.3          1 ACO1205   0.0000
    16 P3B         10.2310    34.4230     9.4810 P.3          1 ACO1205   0.0000
    17 O7A          8.8660    34.9550     8.7850 O.co2        1 ACO1205   0.0000
    18 O8A         11.4150    34.6900     8.3960 O.co2        1 ACO1205  -1.0000
    19 O9A         10.4740    35.0550    10.8020 O.co2        1 ACO1205  -1.0000
    20 C4B          9.7340    31.9710    11.7690 C.3          1 ACO1205   0.0000
    21 O4B         10.4290    30.6910    11.5950 O.3          1 ACO1205   0.0000
    22 C5B          8.6610    31.8870    12.8670 C.3          1 ACO1205   0.0000
    23 O5B          7.7390    30.8740    12.4840 O.3          1 ACO1205   0.0000
    24 P1A          6.4410    30.6240    13.3850 P.3          1 ACO1205   0.0000
    25 O1A          5.7720    29.2490    12.9440 O.co2        1 ACO1205   0.0000
    26 O2A          5.5560    31.8190    13.5110 O.co2        1 ACO1205  -1.0000
    27 O3A          7.0940    30.3680    14.9150 O.3          1 ACO1205   0.0000
    28 P2A          6.2450    30.2690    16.2570 P.3          1 ACO1205   0.0000
    29 O4A          5.1060    29.2340    16.0780 O.co2        1 ACO1205   0.0000
    30 O5A          5.8120    31.5860    16.7830 O.co2        1 ACO1205  -1.0000
    31 O6A          7.3100    29.5630    17.2770 O.3          1 ACO1205   0.0000
    32 CBP          7.6320    27.3620    18.1720 C.3          1 ACO1205   0.0000
    33 CCP          7.8710    28.2990    16.9740 C.3          1 ACO1205   0.0000
    34 CDP          8.2780    26.0000    17.8470 C.3          1 ACO1205   0.0000
    35 CEP          8.2700    27.9880    19.4120 C.3          1 ACO1205   0.0000
    36 CAP          6.1200    27.2240    18.4650 C.3          1 ACO1205   0.0000
    37 OAP          5.4230    26.7450    17.3190 O.3          1 ACO1205   0.0000
    38 C9P          5.8270    26.2410    19.6150 C.2          1 ACO1205   0.0000
    39 O9P          6.0170    26.5450    20.7880 O.2          1 ACO1205   0.0000
    40 N8P          5.2620    25.0940    19.2230 N.am         1 ACO1205   0.0000
    41 C7P          4.7900    24.0300    20.1450 C.3          1 ACO1205   0.0000
    42 C6P          5.8070    23.7790    21.2510 C.3          1 ACO1205   0.0000
    43 C5P          7.2040    23.4760    20.7010 C.2          1 ACO1205   0.0000
    44 O5P          7.3860    22.7920    19.6830 O.2          1 ACO1205   0.0000
    45 N4P          8.1940    23.9950    21.4460 N.am         1 ACO1205   0.0000
    46 C3P          9.6030    23.8250    21.1310 C.3          1 ACO1205   0.0000
    47 C2P         10.1680    22.7100    22.0180 C.3          1 ACO1205   0.0000
    48 S1P         11.9560    22.4440    21.7330 S.3          1 ACO1205   0.0000
    49 C           12.6470    23.6810    22.7370 C.2          1 ACO1205   0.0000
    50 O           12.0070    24.3690    23.5260 O.2          1 ACO1205   0.0000
    51 CH3         14.1140    23.8960    22.4910 C.3          1 ACO1205   0.0000
    52 H2A         12.1572    26.3135     7.5469 H            1 ACO1205   0.0000
    53 H6A1         8.8660    24.6266    11.3244 H            1 ACO1205   0.0000
    54 H6A2         9.6712    23.5161    10.2669 H            1 ACO1205   0.0000
    55 H8A          8.5229    28.9920    12.1249 H            1 ACO1205   0.0000
    56 H1B         10.8211    30.3633     9.6113 H            1 ACO1205   0.0000
    57 H2B          8.0112    30.4925    10.4614 H            1 ACO1205   0.0000
    58 H7           7.6297    30.4172     8.3536 H            1 ACO1205   0.0000
    59 H3B          8.2591    32.8390    10.4818 H            1 ACO1205   0.0000
    60 H4B         10.3930    32.6900    11.9899 H            1 ACO1205   0.0000
    61 H5B1         8.1890    32.7645    12.9515 H            1 ACO1205   0.0000
    62 H5B2         9.0846    31.6507    13.7415 H            1 ACO1205   0.0000
    63 HCP1         8.8529    28.3955    16.8112 H            1 ACO1205   0.0000
    64 HCP2         7.4333    27.9220    16.1577 H            1 ACO1205   0.0000
    65 HDP1         8.1357    25.3724    18.6124 H            1 ACO1205   0.0000
    66 HDP2         7.8586    25.6204    17.0224 H            1 ACO1205   0.0000
    67 HDP3         9.2587    26.1239    17.6954 H            1 ACO1205   0.0000
    68 HEP1         8.1232    27.3903    20.2002 H            1 ACO1205   0.0000
    69 HEP2         9.2515    28.1036    19.2596 H            1 ACO1205   0.0000
    70 HEP3         7.8527    28.8797    19.5875 H            1 ACO1205   0.0000
    71 HAP          5.7566    28.1229    18.7099 H            1 ACO1205   0.0000
    72 H21          5.1231    27.5203    16.7631 H            1 ACO1205   0.0000
    73 H8P          5.1496    24.9424    18.2410 H            1 ACO1205   0.0000
    74 H7P1         4.6537    23.1852    19.6276 H            1 ACO1205   0.0000
    75 H7P2         3.9231    24.3131    20.5554 H            1 ACO1205   0.0000
    76 H6P1         5.5011    22.9997    21.7979 H            1 ACO1205   0.0000
    77 H6P2         5.8592    24.5926    21.8301 H            1 ACO1205   0.0000
    78 H4P          7.9495    24.5249    22.2580 H            1 ACO1205   0.0000
    79 H3P1        10.0936    24.6782    21.3080 H            1 ACO1205   0.0000
    80 H3P2         9.7057    23.5750    20.1682 H            1 ACO1205   0.0000
    81 H2P1         9.6797    21.8604    21.8185 H            1 ACO1205   0.0000
    82 H2P2        10.0276    22.9580    22.9765 H            1 ACO1205   0.0000
    83 HH31        14.4514    24.6168    23.0964 H            1 ACO1205   0.0000
    84 HH32        14.6105    23.0475    22.6740 H            1 ACO1205   0.0000
    85 HH33        14.2562    24.1667    21.5389 H            1 ACO1205   0.0000
@<TRIPOS>BOND
     1    1    2      ar
     2    1    6      ar
     3    2    3      ar
     4    3    4      ar
     5    4    5      ar
     6    4   10       1
     7    5    6      ar
     8    5    8       1
     9    6    7       1
    10    8    9       2
    11    9   10       1
    12   10   11       1
    13   11   12       1
    14   11   21       1
    15   12   13       1
    16   12   14       1
    17   14   15       1
    18   14   20       1
    19   15   16       1
    20   16   17      ar
    21   16   18      ar
    22   16   19      ar
    23   20   21       1
    24   20   22       1
    25   22   23       1
    26   23   24       1
    27   24   25      ar
    28   24   26      ar
    29   24   27       1
    30   27   28       1
    31   28   29      ar
    32   28   30      ar
    33   28   31       1
    34   31   33       1
    35   32   33       1
    36   32   34       1
    37   32   35       1
    38   32   36       1
    39   36   37       1
    40   36   38       1
    41   38   39       2
    42   38   40      am
    43   40   41       1
    44   41   42       1
    45   42   43       1
    46   43   44       2
    47   43   45      am
    48   45   46       1
    49   46   47       1
    50   47   48       1
    51   48   49       1
    52   49   50       2
    53   49   51       1
    54    2   52       1
    55    7   53       1
    56    7   54       1
    57    9   55       1
    58   11   56       1
    59   12   57       1
    60   13   58       1
    61   14   59       1
    62   51   85       1
    63   51   84       1
    64   20   60       1
    65   22   61       1
    66   22   62       1
    67   51   83       1
    68   47   82       1
    69   33   63       1
    70   33   64       1
    71   34   65       1
    72   34   66       1
    73   34   67       1
    74   35   68       1
    75   35   69       1
    76   35   70       1
    77   36   71       1
    78   37   72       1
    79   40   73       1
    80   41   74       1
    81   41   75       1
    82   42   76       1
    83   42   77       1
    84   45   78       1
    85   46   79       1
    86   46   80       1
    87   47   81       1
@<TRIPOS>SUBSTRUCTURE
     1 ACO1205     1 GROUP             4 A     ACO     0 **** ACO A1205
