@<TRIPOS>MOLECULE
1jjt_BDS_1_ligand
   44    47     1     0     0
SMALL
NO_CHARGES


@<TRIPOS>ATOM
     1 C1          58.1260    24.9420    33.0130 C.3          1 BDS250   0.0000
     2 C2          58.6070    26.1610    32.2540 C.2          1 BDS250   0.0000
     3 O3          57.8030    26.9000    31.6360 O.co2        1 BDS250   0.0000
     4 O4          59.8480    26.3790    32.2340 O.co2        1 BDS250  -1.0000
     5 C5          58.9370    23.7310    32.4450 C.3          1 BDS250   0.0000
     6 C6          58.1780    23.0330    31.3310 C.ar         1 BDS250   0.0000
     7 C7          57.2590    22.0130    31.6750 C.ar         1 BDS250   0.0000
     8 C8          56.4800    21.3720    30.7130 C.ar         1 BDS250   0.0000
     9 C9          56.7650    21.6650    29.3740 C.ar         1 BDS250   0.0000
    10 O10         56.1730    21.1630    28.2860 O.3          1 BDS250   0.0000
    11 C11         56.7150    21.8570    27.1600 C.3          1 BDS250   0.0000
    12 O12         57.6100    22.8450    27.6980 O.3          1 BDS250   0.0000
    13 C13         57.6250    22.7000    29.0310 C.ar         1 BDS250   0.0000
    14 C14         58.3630    23.4020    29.9850 C.ar         1 BDS250   0.0000
    15 C15         58.4540    25.0100    34.5340 C.3          1 BDS250   0.0000
    16 C16         58.4420    26.4470    35.0360 C.2          1 BDS250   0.0000
    17 O17         57.5670    27.2450    34.6300 O.co2        1 BDS250   0.0000
    18 O18         59.3060    26.8330    35.8760 O.co2        1 BDS250  -1.0000
    19 C19         57.3350    24.1930    35.2490 C.3          1 BDS250   0.0000
    20 C20         57.6160    24.0690    36.7340 C.ar         1 BDS250   0.0000
    21 C21         58.3830    22.9910    37.2010 C.ar         1 BDS250   0.0000
    22 C22         58.6700    22.8470    38.5690 C.ar         1 BDS250   0.0000
    23 C23         58.1480    23.7790    39.4550 C.ar         1 BDS250   0.0000
    24 O24         58.3240    23.8810    40.7770 O.3          1 BDS250   0.0000
    25 C25         57.6010    25.0360    41.2320 C.3          1 BDS250   0.0000
    26 O26         57.0740    25.6420    40.0380 O.3          1 BDS250   0.0000
    27 C27         57.3590    24.8350    39.0030 C.ar         1 BDS250   0.0000
    28 C28         57.0780    24.9940    37.6570 C.ar         1 BDS250   0.0000
    29 H1          57.1456    24.8049    32.8714 H            1 BDS250   0.0000
    30 H2          59.1065    23.0776    33.1828 H            1 BDS250   0.0000
    31 H3          59.8096    24.0627    32.0865 H            1 BDS250   0.0000
    32 H4          57.1660    21.7450    32.6339 H            1 BDS250   0.0000
    33 H5          55.7530    20.7340    30.9669 H            1 BDS250   0.0000
    34 H6          55.9842    22.2972    26.6383 H            1 BDS250   0.0000
    35 H7          57.2124    21.2233    26.5675 H            1 BDS250   0.0000
    36 H8          58.9938    24.1330    29.7247 H            1 BDS250   0.0000
    37 H9          59.3462    24.5941    34.7100 H            1 BDS250   0.0000
    38 H10         57.2907    23.2783    34.8472 H            1 BDS250   0.0000
    39 H11         56.4585    24.6567    35.1198 H            1 BDS250   0.0000
    40 H12         58.7305    22.3153    36.5509 H            1 BDS250   0.0000
    41 H13         59.2369    22.0910    38.8963 H            1 BDS250   0.0000
    42 H14         58.2129    25.6689    41.7064 H            1 BDS250   0.0000
    43 H15         56.8590    24.7665    41.8459 H            1 BDS250   0.0000
    44 H16         56.5042    25.7504    37.3431 H            1 BDS250   0.0000
@<TRIPOS>BOND
     1    1    2       1
     2    1    5       1
     3    1   15       1
     4    2    3      ar
     5    2    4      ar
     6    5    6       1
     7    6    7      ar
     8    6   14      ar
     9    7    8      ar
    10    8    9      ar
    11    9   10       1
    12    9   13      ar
    13   10   11       1
    14   11   12       1
    15   12   13       1
    16   13   14      ar
    17   15   16       1
    18   15   19       1
    19   16   17      ar
    20   16   18      ar
    21   19   20       1
    22   20   21      ar
    23   20   28      ar
    24   21   22      ar
    25   22   23      ar
    26   23   24       1
    27   23   27      ar
    28   24   25       1
    29   25   26       1
    30   26   27       1
    31   27   28      ar
    32    1   29       1
    33   28   44       1
    34    5   30       1
    35    5   31       1
    36    7   32       1
    37    8   33       1
    38   11   34       1
    39   11   35       1
    40   14   36       1
    41   15   37       1
    42   25   43       1
    43   19   38       1
    44   19   39       1
    45   21   40       1
    46   22   41       1
    47   25   42       1
@<TRIPOS>SUBSTRUCTURE
     1 BDS250      1 GROUP             4 A     BDS     0 **** BDS A 250
