@<TRIPOS>MOLECULE
4usj_ATP_3_ligand
   43    45     1     0     0
SMALL
NO_CHARGES


@<TRIPOS>ATOM
     1 PG          54.0150    24.0510    40.5780 P.3          1 ATP301   0.0000
     2 O1G         54.2440    24.8860    41.7770 O.co2        1 ATP301   0.0000
     3 O2G         54.1920    22.6560    41.0530 O.co2        1 ATP301  -1.0000
     4 O3G         54.8220    24.5230    39.3620 O.co2        1 ATP301  -1.0000
     5 PB          51.2820    24.5900    41.1600 P.3          1 ATP301   0.0000
     6 O1B         49.9500    23.9960    40.8930 O.co2        1 ATP301   0.0000
     7 O2B         51.8920    24.1390    42.4540 O.co2        1 ATP301  -1.0000
     8 O3B         52.4460    24.1110    40.1410 O.3          1 ATP301   0.0000
     9 PA          51.9540    27.3310    41.2980 P.3          1 ATP301   0.0000
    10 O1A         53.0290    27.9870    40.4090 O.co2        1 ATP301   0.0000
    11 O2A         52.2100    26.9490    42.7200 O.co2        1 ATP301  -1.0000
    12 O3A         51.1350    26.1160    40.6820 O.3          1 ATP301   0.0000
    13 O5'         50.7880    28.4090    41.4050 O.3          1 ATP301   0.0000
    14 C5'         51.0730    29.7890    41.3540 C.3          1 ATP301   0.0000
    15 C4'         49.9210    30.6430    41.8690 C.3          1 ATP301   0.0000
    16 O4'         48.7150    30.4740    41.1140 O.3          1 ATP301   0.0000
    17 C3'         49.5410    30.3210    43.2990 C.3          1 ATP301   0.0000
    18 O3'         50.3550    30.9980    44.2270 O.3          1 ATP301   0.0000
    19 C2'         48.1410    30.8480    43.3230 C.3          1 ATP301   0.0000
    20 O2'         48.2320    32.2440    43.3170 O.3          1 ATP301   0.0000
    21 C1'         47.5750    30.5340    41.9670 C.3          1 ATP301   0.0000
    22 N9          46.8170    29.2560    41.8920 N.pl3        1 ATP301   0.0000
    23 C8          47.3510    28.0470    41.7520 C.2          1 ATP301   0.0000
    24 N7          46.3900    27.0850    41.6890 N.2          1 ATP301   0.0000
    25 C5          45.2010    27.6660    41.7790 C.ar         1 ATP301   0.0000
    26 C6          43.8100    27.1950    41.7430 C.ar         1 ATP301   0.0000
    27 N6          43.4570    25.8890    41.6160 N.pl3        1 ATP301   0.0000
    28 N1          42.8840    28.1370    41.8720 N.ar         1 ATP301   0.0000
    29 C2          43.2060    29.4520    41.9960 C.ar         1 ATP301   0.0000
    30 N3          44.4500    29.9380    42.0060 N.ar         1 ATP301   0.0000
    31 C4          45.4860    29.0990    41.9100 C.ar         1 ATP301   0.0000
    32 H5'1        51.2608    30.0427    40.4051 H            1 ATP301   0.0000
    33 H5'2        51.8816    29.9702    41.9138 H            1 ATP301   0.0000
    34 H4'         50.1928    31.6042    41.8217 H            1 ATP301   0.0000
    35 H3'         49.5560    29.3343    43.4610 H            1 ATP301   0.0000
    36 H5          50.0719    30.7585    45.1557 H            1 ATP301   0.0000
    37 H2'         47.5922    30.4875    44.0773 H            1 ATP301   0.0000
    38 H7          47.3130    32.6380    43.3326 H            1 ATP301   0.0000
    39 H1'         46.9837    31.2856    41.6745 H            1 ATP301   0.0000
    40 H9          48.3333    27.8670    41.6996 H            1 ATP301   0.0000
    41 H10         42.4908    25.6317    41.5979 H            1 ATP301   0.0000
    42 H11         44.1634    25.1852    41.5406 H            1 ATP301   0.0000
    43 H12         42.4542    30.1051    42.0866 H            1 ATP301   0.0000
@<TRIPOS>BOND
     1    1    2      ar
     2    1    3      ar
     3    1    4      ar
     4    1    8       1
     5    5    6      ar
     6    5    7      ar
     7    5    8       1
     8    5   12       1
     9    9   10      ar
    10    9   11      ar
    11    9   12       1
    12    9   13       1
    13   13   14       1
    14   14   15       1
    15   15   16       1
    16   15   17       1
    17   16   21       1
    18   17   18       1
    19   17   19       1
    20   19   20       1
    21   19   21       1
    22   21   22       1
    23   22   23       1
    24   22   31       1
    25   23   24       2
    26   24   25       1
    27   25   26      ar
    28   25   31      ar
    29   26   27       1
    30   26   28      ar
    31   28   29      ar
    32   29   30      ar
    33   30   31      ar
    34   29   43       1
    35   27   42       1
    36   27   41       1
    37   23   40       1
    38   14   32       1
    39   14   33       1
    40   15   34       1
    41   17   35       1
    42   18   36       1
    43   19   37       1
    44   20   38       1
    45   21   39       1
@<TRIPOS>SUBSTRUCTURE
     1 ATP301      1 GROUP             4 D     ATP     0 **** ATP D 301
