@<TRIPOS>MOLECULE
2ay8_4TB_1_ligand
   20    20     1     0     0
SMALL
NO_CHARGES


@<TRIPOS>ATOM
     1 S1          94.3950    19.8500    -0.8210 S.3          1 4TB414   0.0000
     2 C2          94.1950    18.5030    -1.9270 C.2          1 4TB414   0.0000
     3 C3          95.1230    17.5370    -1.7350 C.2          1 4TB414   0.0000
     4 C4          96.0490    17.8650    -0.6510 C.2          1 4TB414   0.0000
     5 C5          95.7790    19.0540    -0.0830 C.2          1 4TB414   0.0000
     6 C6          93.0680    18.5040    -2.9150 C.3          1 4TB414   0.0000
     7 C7          93.1720    17.3870    -3.9370 C.3          1 4TB414   0.0000
     8 C8          91.8120    16.8080    -4.2700 C.3          1 4TB414   0.0000
     9 C9          91.7940    15.3020    -4.1330 C.2          1 4TB414   0.0000
    10 O1          91.2010    14.7960    -3.1620 O.co2        1 4TB414   0.0000
    11 O2          92.4100    14.6140    -4.9680 O.co2        1 4TB414  -1.0000
    12 H1          95.1704    16.6952    -2.2726 H            1 4TB414   0.0000
    13 H2          96.8001    17.2706    -0.3639 H            1 4TB414   0.0000
    14 H3          96.3057    19.4417     0.6735 H            1 4TB414   0.0000
    15 H4          93.0695    19.3792    -3.3987 H            1 4TB414   0.0000
    16 H5          92.2074    18.4002    -2.4164 H            1 4TB414   0.0000
    17 H6          93.7520    16.6613    -3.5668 H            1 4TB414   0.0000
    18 H7          93.5841    17.7493    -4.7730 H            1 4TB414   0.0000
    19 H8          91.5789    17.0502    -5.2118 H            1 4TB414   0.0000
    20 H9          91.1331    17.1978    -3.6478 H            1 4TB414   0.0000
@<TRIPOS>BOND
     1    1    2       1
     2    1    5       1
     3    2    3       2
     4    2    6       1
     5    3    4       1
     6    4    5       2
     7    6    7       1
     8    7    8       1
     9    8    9       1
    10    9   10      ar
    11    9   11      ar
    12    3   12       1
    13    4   13       1
    14    5   14       1
    15    6   15       1
    16    6   16       1
    17    7   17       1
    18    7   18       1
    19    8   19       1
    20    8   20       1
@<TRIPOS>SUBSTRUCTURE
     1 4TB414      1 GROUP             4 A     4TB     0 **** 4TB A 414
