@<TRIPOS>MOLECULE
4e5k_NAD_3_ligand
   70    74     1     0     0
SMALL
NO_CHARGES


@<TRIPOS>ATOM
     1 PA          35.5990   -21.7710     4.1220 P.3          1 NAD401   0.0000
     2 O1A         35.1190   -22.0200     5.5490 O.co2        1 NAD401   0.0000
     3 O2A         36.5300   -20.6130     3.8540 O.co2        1 NAD401  -1.0000
     4 O5B         36.3080   -23.0940     3.6170 O.3          1 NAD401   0.0000
     5 C5B         37.0670   -23.1190     2.3970 C.3          1 NAD401   0.0000
     6 C4B         38.1950   -24.1210     2.5860 C.3          1 NAD401   0.0000
     7 O4B         38.8170   -24.3490     1.3250 O.3          1 NAD401   0.0000
     8 C3B         39.3100   -23.6380     3.4970 C.3          1 NAD401   0.0000
     9 O3B         39.4630   -24.5340     4.6080 O.3          1 NAD401   0.0000
    10 C2B         40.5670   -23.6780     2.6420 C.3          1 NAD401   0.0000
    11 O2B         41.6510   -24.2320     3.3640 O.3          1 NAD401   0.0000
    12 C1B         40.1740   -24.6720     1.5940 C.3          1 NAD401   0.0000
    13 N9A         40.9680   -24.5680     0.3530 N.pl3        1 NAD401   0.0000
    14 C8A         41.3180   -23.4460    -0.2860 C.2          1 NAD401   0.0000
    15 N7A         42.0350   -23.7910    -1.3930 N.2          1 NAD401   0.0000
    16 C5A         42.1190   -25.1380    -1.4270 C.ar         1 NAD401   0.0000
    17 C6A         42.7150   -26.0280    -2.3000 C.ar         1 NAD401   0.0000
    18 N6A         43.3750   -25.5460    -3.3780 N.pl3        1 NAD401   0.0000
    19 N1A         42.6270   -27.3560    -2.0720 N.ar         1 NAD401   0.0000
    20 C2A         41.9560   -27.8160    -0.9980 C.ar         1 NAD401   0.0000
    21 N3A         41.3690   -26.9810    -0.1230 N.ar         1 NAD401   0.0000
    22 C4A         41.4430   -25.6290    -0.3230 C.ar         1 NAD401   0.0000
    23 O3          34.3480   -21.5520     3.1150 O.3          1 NAD401   0.0000
    24 PN          32.9710   -22.4220     3.0520 P.3          1 NAD401   0.0000
    25 O1N         31.9500   -21.7700     3.9650 O.co2        1 NAD401   0.0000
    26 O2N         33.3110   -23.8570     3.2450 O.co2        1 NAD401  -1.0000
    27 O5D         32.4730   -22.2110     1.5590 O.3          1 NAD401   0.0000
    28 C5D         33.3350   -22.4480     0.4670 C.3          1 NAD401   0.0000
    29 C4D         32.7540   -21.6910    -0.7190 C.3          1 NAD401   0.0000
    30 O4D         31.4950   -22.2180    -1.1550 O.3          1 NAD401   0.0000
    31 C3D         32.4870   -20.2260    -0.4150 C.3          1 NAD401   0.0000
    32 O3D         33.6530   -19.4270    -0.6120 O.3          1 NAD401   0.0000
    33 C2D         31.4650   -19.8710    -1.4480 C.3          1 NAD401   0.0000
    34 O2D         32.2580   -19.5680    -2.6040 O.3          1 NAD401   0.0000
    35 C1D         30.6850   -21.1650    -1.6830 C.3          1 NAD401   0.0000
    36 N1N         29.3480   -21.1290    -1.0350 N.ar         1 NAD401   1.0000
    37 C2N         28.2480   -21.4010    -1.7520 C.ar         1 NAD401   0.0000
    38 C3N         26.9720   -21.3370    -1.1710 C.ar         1 NAD401   0.0000
    39 C7N         25.7440   -21.6860    -1.9700 C.2          1 NAD401   0.0000
    40 O7N         24.6690   -21.1500    -1.7550 O.2          1 NAD401   0.0000
    41 N7N         25.8540   -22.6320    -2.8960 N.am         1 NAD401   0.0000
    42 C4N         26.8540   -20.9960     0.1770 C.ar         1 NAD401   0.0000
    43 C5N         28.0110   -20.7200     0.9000 C.ar         1 NAD401   0.0000
    44 C6N         29.2450   -20.7750     0.2570 C.ar         1 NAD401   0.0000
    45 H5B1        37.4432   -22.2116     2.2095 H            1 NAD401   0.0000
    46 H5B2        36.4826   -23.4012     1.6362 H            1 NAD401   0.0000
    47 H4B         37.8242   -24.9808     2.9371 H            1 NAD401   0.0000
    48 H3B         39.1284   -22.7076     3.8155 H            1 NAD401   0.0000
    49 H5          39.6880   -25.4481     4.2705 H            1 NAD401   0.0000
    50 H2B         40.7887   -22.7842     2.2523 H            1 NAD401   0.0000
    51 H7          41.6707   -25.2225     3.2279 H            1 NAD401   0.0000
    52 H1B         40.2373   -25.5994     1.9627 H            1 NAD401   0.0000
    53 H8A         41.0925   -22.5145    -0.0007 H            1 NAD401   0.0000
    54 H6A1        43.8120   -26.1763    -4.0197 H            1 NAD401   0.0000
    55 H6A2        43.4259   -24.5594    -3.5331 H            1 NAD401   0.0000
    56 H2A         41.8931   -28.8027    -0.8480 H            1 NAD401   0.0000
    57 H5D1        33.3752   -23.4266     0.2654 H            1 NAD401   0.0000
    58 H5D2        34.2540   -22.1123     0.6738 H            1 NAD401   0.0000
    59 H4D         33.4017   -21.7451    -1.4790 H            1 NAD401   0.0000
    60 H3D         32.1218   -20.1099     0.5087 H            1 NAD401   0.0000
    61 H17         33.6768   -19.0992    -1.5565 H            1 NAD401   0.0000
    62 H2D         30.8793   -19.1101    -1.1689 H            1 NAD401   0.0000
    63 H19         32.7964   -20.3713    -2.8588 H            1 NAD401   0.0000
    64 H1D         30.5686   -21.3032    -2.6665 H            1 NAD401   0.0000
    65 H2N         28.3382   -21.6533    -2.7154 H            1 NAD401   0.0000
    66 H7N1        25.0588   -22.8891    -3.4451 H            1 NAD401   0.0000
    67 H7N2        26.7320   -23.0871    -3.0440 H            1 NAD401   0.0000
    68 H4N         25.9561   -20.9508     0.6149 H            1 NAD401   0.0000
    69 H5N         27.9567   -20.4848     1.8704 H            1 NAD401   0.0000
    70 H6N         30.0732   -20.5458     0.7684 H            1 NAD401   0.0000
@<TRIPOS>BOND
     1    1    2      ar
     2    1    3      ar
     3    1    4       1
     4    1   23       1
     5    4    5       1
     6    5    6       1
     7    6    7       1
     8    6    8       1
     9    7   12       1
    10    8    9       1
    11    8   10       1
    12   10   11       1
    13   10   12       1
    14   12   13       1
    15   13   14       1
    16   13   22       1
    17   14   15       2
    18   15   16       1
    19   16   17      ar
    20   16   22      ar
    21   17   18       1
    22   17   19      ar
    23   19   20      ar
    24   20   21      ar
    25   21   22      ar
    26   23   24       1
    27   24   25      ar
    28   24   26      ar
    29   24   27       1
    30   27   28       1
    31   28   29       1
    32   29   30       1
    33   29   31       1
    34   30   35       1
    35   31   32       1
    36   31   33       1
    37   33   34       1
    38   33   35       1
    39   35   36       1
    40   36   37      ar
    41   36   44      ar
    42   37   38      ar
    43   38   39       1
    44   38   42      ar
    45   39   40       2
    46   39   41      am
    47   42   43      ar
    48   43   44      ar
    49   44   70       1
    50    5   45       1
    51    5   46       1
    52    6   47       1
    53    8   48       1
    54    9   49       1
    55   10   50       1
    56   11   51       1
    57   12   52       1
    58   14   53       1
    59   18   54       1
    60   18   55       1
    61   20   56       1
    62   43   69       1
    63   28   57       1
    64   28   58       1
    65   29   59       1
    66   31   60       1
    67   32   61       1
    68   33   62       1
    69   34   63       1
    70   35   64       1
    71   37   65       1
    72   41   66       1
    73   41   67       1
    74   42   68       1
@<TRIPOS>SUBSTRUCTURE
     1 NAD401      1 GROUP             4 C     NAD     0 **** NAD C 401
