@<TRIPOS>MOLECULE
3ums_GDP_1_ligand
   41    43     1     0     0
SMALL
NO_CHARGES


@<TRIPOS>ATOM
     1 PB         -22.4060    38.6410    -3.4430 P.3          1 GDP355   0.0000
     2 O1B        -22.0490    38.9760    -4.8780 O.co2        1 GDP355   0.0000
     3 O2B        -23.5060    39.5570    -2.9690 O.co2        1 GDP355  -1.0000
     4 O3B        -22.9070    37.2140    -3.3500 O.co2        1 GDP355  -1.0000
     5 O3A        -21.1240    38.9530    -2.5190 O.3          1 GDP355   0.0000
     6 PA         -20.1640    37.7800    -2.0040 P.3          1 GDP355   0.0000
     7 O1A        -20.8370    37.0850    -0.8460 O.co2        1 GDP355   0.0000
     8 O2A        -19.8580    36.8130    -3.1410 O.co2        1 GDP355  -1.0000
     9 O5'        -18.8490    38.5400    -1.4800 O.3          1 GDP355   0.0000
    10 C5'        -17.9370    39.1510    -2.3760 C.3          1 GDP355   0.0000
    11 C4'        -16.5410    39.0600    -1.7670 C.3          1 GDP355   0.0000
    12 O4'        -16.5040    39.7730    -0.5340 O.3          1 GDP355   0.0000
    13 C3'        -16.1830    37.6210    -1.4320 C.3          1 GDP355   0.0000
    14 O3'        -14.8360    37.3450    -1.8070 O.3          1 GDP355   0.0000
    15 C2'        -16.3450    37.5290     0.0750 C.3          1 GDP355   0.0000
    16 O2'        -15.4470    36.5910     0.6570 O.3          1 GDP355   0.0000
    17 C1'        -16.0540    38.9320     0.5410 C.3          1 GDP355   0.0000
    18 N9         -16.7960    39.3600     1.7440 N.pl3        1 GDP355   0.0000
    19 C8         -18.1300    39.3400     1.9110 C.2          1 GDP355   0.0000
    20 N7         -18.4640    39.8880     3.1020 N.2          1 GDP355   0.0000
    21 C5         -17.3320    40.3060     3.6930 C.2          1 GDP355   0.0000
    22 C6         -16.9560    40.9660     4.9630 C.2          1 GDP355   0.0000
    23 O6         -17.8370    41.2720     5.7780 O.2          1 GDP355   0.0000
    24 N1         -15.6660    41.2150     5.2040 N.2          1 GDP355   1.0000
    25 C2         -14.7060    40.8850     4.3130 C.2          1 GDP355   0.0000
    26 N2         -13.4030    41.1540     4.5710 N.pl3        1 GDP355   0.0000
    27 N3         -14.9760    40.2800     3.1400 N.pl3        1 GDP355   0.0000
    28 C4         -16.2380    39.9620     2.7850 C.2          1 GDP355   0.0000
    29 H5'1       -18.1859    40.1100    -2.5113 H            1 GDP355   0.0000
    30 H5'2       -17.9550    38.6747    -3.2551 H            1 GDP355   0.0000
    31 H4'        -15.8673    39.4401    -2.4008 H            1 GDP355   0.0000
    32 H3'        -16.8092    36.9898    -1.8897 H            1 GDP355   0.0000
    33 H5         -14.3138    37.0737    -0.9985 H            1 GDP355   0.0000
    34 H2'        -17.2876    37.2837     0.3017 H            1 GDP355   0.0000
    35 H7         -15.9679    35.8765     1.1242 H            1 GDP355   0.0000
    36 H1'        -15.0712    39.0507     0.6825 H            1 GDP355   0.0000
    37 H9         -18.7828    38.9722     1.2487 H            1 GDP355   0.0000
    38 H10        -15.4052    41.6555     6.0631 H            1 GDP355   0.0000
    39 H11        -12.6998    40.9057     3.9048 H            1 GDP355   0.0000
    40 H12        -13.1448    41.6008     5.4276 H            1 GDP355   0.0000
    41 H13        -14.2238    40.0617     2.5183 H            1 GDP355   0.0000
@<TRIPOS>BOND
     1    1    2      ar
     2    1    3      ar
     3    1    4      ar
     4    1    5       1
     5    5    6       1
     6    6    7      ar
     7    6    8      ar
     8    6    9       1
     9    9   10       1
    10   10   11       1
    11   11   12       1
    12   11   13       1
    13   12   17       1
    14   13   14       1
    15   13   15       1
    16   15   16       1
    17   15   17       1
    18   17   18       1
    19   18   19       1
    20   18   28       1
    21   19   20       2
    22   20   21       1
    23   21   22       1
    24   21   28       2
    25   22   23       2
    26   22   24       1
    27   24   25       2
    28   25   26       1
    29   25   27       1
    30   27   28       1
    31   26   40       1
    32   26   39       1
    33   24   38       1
    34   10   29       1
    35   10   30       1
    36   11   31       1
    37   13   32       1
    38   14   33       1
    39   15   34       1
    40   16   35       1
    41   17   36       1
    42   19   37       1
    43   27   41       1
@<TRIPOS>SUBSTRUCTURE
     1 GDP355      1 GROUP             4 A     GDP     0 **** GDP A 355
