@<TRIPOS>MOLECULE
4w5k_PLP_1_ligand
   25    25     1     0     0
SMALL
NO_CHARGES


@<TRIPOS>ATOM
     1 N1          35.2930    30.2900    54.7170 N.ar         1 PLP500   1.0000
     2 C2          35.2750    29.5280    53.5730 C.ar         1 PLP500   0.0000
     3 C2A         35.8300    30.1230    52.3190 C.3          1 PLP500   0.0000
     4 C3          34.7520    28.2350    53.5880 C.ar         1 PLP500   0.0000
     5 O3          34.7070    27.4660    52.4570 O.3          1 PLP500   0.0000
     6 C4          34.2500    27.7100    54.7710 C.ar         1 PLP500   0.0000
     7 C4A         33.9100    26.2460    54.8090 C.2          1 PLP500   0.0000
     8 O4A         32.8560    25.8680    54.2890 O.2          1 PLP500   0.0000
     9 C5          34.2690    28.4800    55.9330 C.ar         1 PLP500   0.0000
    10 C6          34.8090    29.7670    55.9020 C.ar         1 PLP500   0.0000
    11 C5A         33.6990    27.9390    57.2360 C.3          1 PLP500   0.0000
    12 O4P         34.5770    27.0180    57.8200 O.3          1 PLP500   0.0000
    13 P           34.3130    26.4060    59.2270 P.3          1 PLP500   0.0000
    14 O1P         33.5330    25.1310    59.1100 O.co2        1 PLP500   0.0000
    15 O2P         33.5730    27.4010    60.0870 O.co2        1 PLP500  -1.0000
    16 O3P         35.6910    26.1370    59.7860 O.co2        1 PLP500  -1.0000
    17 H2A1        35.7520    29.4614    51.5732 H            1 PLP500   0.0000
    18 H2A2        35.3169    30.9493    52.0866 H            1 PLP500   0.0000
    19 H2A3        36.7924    30.3564    52.4583 H            1 PLP500   0.0000
    20 H4          34.3267    26.5419    52.4955 H            1 PLP500   0.0000
    21 H4A         34.5257    25.5910    55.2470 H            1 PLP500   0.0000
    22 H6          34.8459    30.3124    56.7394 H            1 PLP500   0.0000
    23 H5A1        32.8267    27.4870    57.0493 H            1 PLP500   0.0000
    24 H5A2        33.5520    28.6986    57.8696 H            1 PLP500   0.0000
    25 H9          35.6557    31.2216    54.6922 H            1 PLP500   0.0000
@<TRIPOS>BOND
     1    1    2      ar
     2    1   10      ar
     3    2    3       1
     4    2    4      ar
     5    4    5       1
     6    4    6      ar
     7    6    7       1
     8    6    9      ar
     9    7    8       2
    10    9   10      ar
    11    9   11       1
    12   11   12       1
    13   12   13       1
    14   13   14      ar
    15   13   15      ar
    16   13   16      ar
    17    3   17       1
    18    3   18       1
    19    3   19       1
    20    5   20       1
    21    7   21       1
    22   10   22       1
    23   11   23       1
    24   11   24       1
    25    1   25       1
@<TRIPOS>SUBSTRUCTURE
     1 PLP500      1 GROUP             4 A     PLP     0 **** PLP A 500
