@<TRIPOS>MOLECULE
3x1d_GDP_1_ligand
   40    42     1     0     0
SMALL
NO_CHARGES


@<TRIPOS>ATOM
     1 PB         124.2680    35.1100   435.6440 P.3          1 GDP601   0.0000
     2 O1B        125.5010    35.0960   434.7820 O.co2        1 GDP601   0.0000
     3 O2B        124.6220    35.0280   437.1050 O.co2        1 GDP601  -1.0000
     4 O3B        123.4180    36.3380   435.4440 O.co2        1 GDP601  -1.0000
     5 O3A        123.3600    33.8750   435.2250 O.3          1 GDP601   0.0000
     6 PA         123.8230    32.4030   435.6400 P.3          1 GDP601   0.0000
     7 O1A        125.2080    32.3490   436.2300 O.co2        1 GDP601   0.0000
     8 O2A        122.8430    31.9760   436.6990 O.co2        1 GDP601  -1.0000
     9 O5'        123.7250    31.6110   434.2270 O.3          1 GDP601   0.0000
    10 C5'        123.1050    30.3240   434.0960 C.3          1 GDP601   0.0000
    11 C4'        123.0070    29.8050   432.6560 C.3          1 GDP601   0.0000
    12 O4'        124.2780    29.8650   432.0140 O.3          1 GDP601   0.0000
    13 C3'        122.6840    28.3200   432.6150 C.3          1 GDP601   0.0000
    14 O3'        121.9970    27.9860   431.3980 O.3          1 GDP601   0.0000
    15 C2'        124.0240    27.6310   432.5130 C.3          1 GDP601   0.0000
    16 O2'        123.8730    26.3840   431.8470 O.3          1 GDP601   0.0000
    17 C1'        124.7150    28.5690   431.5730 C.3          1 GDP601   0.0000
    18 N9         126.1760    28.5280   431.6740 N.pl3        1 GDP601   0.0000
    19 C8         126.9140    28.4280   432.7730 C.2          1 GDP601   0.0000
    20 N7         128.2270    28.4830   432.4430 N.2          1 GDP601   0.0000
    21 C5         128.3350    28.6440   431.1200 C.2          1 GDP601   0.0000
    22 C6         129.4190    28.7980   430.1190 C.2          1 GDP601   0.0000
    23 O6         130.6320    28.7700   430.4200 O.2          1 GDP601   0.0000
    24 N1         129.0650    28.9460   428.8340 N.pl3        1 GDP601   0.0000
    25 C2         127.7810    28.9540   428.4270 C.2          1 GDP601   0.0000
    26 N2         127.5180    29.1280   427.1140 N.pl3        1 GDP601   0.0000
    27 N3         126.7420    28.8270   429.2970 N.2          1 GDP601   0.0000
    28 C4         126.9640    28.6750   430.6250 C.2          1 GDP601   0.0000
    29 H5'1       122.1792    30.3845   434.4692 H            1 GDP601   0.0000
    30 H5'2       123.6369    29.6660   434.6290 H            1 GDP601   0.0000
    31 H4'        122.3277    30.3267   432.1399 H            1 GDP601   0.0000
    32 H3'        122.1742    28.0266   433.4238 H            1 GDP601   0.0000
    33 H5         122.2123    27.0437   431.1415 H            1 GDP601   0.0000
    34 H2'        124.4889    27.5490   433.3946 H            1 GDP601   0.0000
    35 H7         123.9923    26.5151   430.8628 H            1 GDP601   0.0000
    36 H1'        124.4230    28.4013   430.6314 H            1 GDP601   0.0000
    37 H9         126.5560    28.3276   433.7013 H            1 GDP601   0.0000
    38 H10        129.7850    29.0551   428.1487 H            1 GDP601   0.0000
    39 H11        126.5718    29.1372   426.7905 H            1 GDP601   0.0000
    40 H12        128.2694    29.2477   426.4651 H            1 GDP601   0.0000
@<TRIPOS>BOND
     1    1    2      ar
     2    1    3      ar
     3    1    4      ar
     4    1    5       1
     5    5    6       1
     6    6    7      ar
     7    6    8      ar
     8    6    9       1
     9    9   10       1
    10   10   11       1
    11   11   12       1
    12   11   13       1
    13   12   17       1
    14   13   14       1
    15   13   15       1
    16   15   16       1
    17   15   17       1
    18   17   18       1
    19   18   19       1
    20   18   28       1
    21   19   20       2
    22   20   21       1
    23   21   22       1
    24   21   28       2
    25   22   23       2
    26   22   24       1
    27   24   25       1
    28   25   26       1
    29   25   27       2
    30   27   28       1
    31   26   40       1
    32   26   39       1
    33   24   38       1
    34   10   29       1
    35   10   30       1
    36   11   31       1
    37   13   32       1
    38   14   33       1
    39   15   34       1
    40   16   35       1
    41   17   36       1
    42   19   37       1
@<TRIPOS>SUBSTRUCTURE
     1 GDP601      1 GROUP             4 A     GDP     0 **** GDP A 601
