@<TRIPOS>MOLECULE
3hgm_ATP_2_ligand
   43    45     1     0     0
SMALL
NO_CHARGES


@<TRIPOS>ATOM
     1 PG          34.7700     1.6330   -10.5710 P.3          1 ATP148   0.0000
     2 O1G         35.2160     2.8150   -11.3890 O.co2        1 ATP148   0.0000
     3 O2G         35.0300     0.3070   -11.2350 O.co2        1 ATP148  -1.0000
     4 O3G         35.1620     1.6830    -9.1200 O.co2        1 ATP148  -1.0000
     5 PB          32.2470     2.8060   -11.2130 P.3          1 ATP148   0.0000
     6 O1B         30.9200     2.1110   -11.3390 O.co2        1 ATP148   0.0000
     7 O2B         32.8890     3.3770   -12.4510 O.co2        1 ATP148  -1.0000
     8 O3B         33.1670     1.6870   -10.5170 O.3          1 ATP148   0.0000
     9 PA          32.7830     5.4030    -9.9680 P.3          1 ATP148   0.0000
    10 O1A         33.7570     5.6760   -11.0800 O.co2        1 ATP148   0.0000
    11 O2A         33.2430     5.5860    -8.5450 O.co2        1 ATP148  -1.0000
    12 O3A         32.1250     3.9240   -10.0510 O.3          1 ATP148   0.0000
    13 O5'         31.5050     6.3620   -10.2180 O.3          1 ATP148   0.0000
    14 C5'         30.6910     6.8600    -9.1570 C.3          1 ATP148   0.0000
    15 C4'         30.2890     8.3050    -9.4290 C.3          1 ATP148   0.0000
    16 O4'         31.4490     9.1290    -9.3400 O.3          1 ATP148   0.0000
    17 C3'         29.7000     8.5950   -10.8000 C.3          1 ATP148   0.0000
    18 O3'         28.2940     8.3260   -10.8990 O.3          1 ATP148   0.0000
    19 C2'         30.0140    10.0640   -10.9570 C.3          1 ATP148   0.0000
    20 O2'         29.0320    10.8580   -10.2690 O.3          1 ATP148   0.0000
    21 C1'         31.3540    10.2120   -10.2640 C.3          1 ATP148   0.0000
    22 N9          32.4710    10.1550   -11.2390 N.pl3        1 ATP148   0.0000
    23 C8          33.1800     9.0670   -11.6010 C.2          1 ATP148   0.0000
    24 N7          34.1260     9.3850   -12.5210 N.2          1 ATP148   0.0000
    25 C5          34.0330    10.7020   -12.7400 C.ar         1 ATP148   0.0000
    26 C6          34.7300    11.6790   -13.5960 C.ar         1 ATP148   0.0000
    27 N6          35.7450    11.2770   -14.3990 N.pl3        1 ATP148   0.0000
    28 N1          34.3120    12.9660   -13.5400 N.ar         1 ATP148   0.0000
    29 C2          33.2980    13.3630   -12.7400 C.ar         1 ATP148   0.0000
    30 N3          32.6180    12.5260   -11.9380 N.ar         1 ATP148   0.0000
    31 C4          32.9330    11.2060   -11.9010 C.ar         1 ATP148   0.0000
    32 H5'1        31.2041     6.8165    -8.2998 H            1 ATP148   0.0000
    33 H5'2        29.8676     6.2975    -9.0815 H            1 ATP148   0.0000
    34 H4'         29.6347     8.5939    -8.7301 H            1 ATP148   0.0000
    35 H3'         30.1920     8.0703   -11.4947 H            1 ATP148   0.0000
    36 H5          28.1248     7.3601   -10.7031 H            1 ATP148   0.0000
    37 H2'         30.0752    10.3200   -11.9217 H            1 ATP148   0.0000
    38 H7          29.2501    11.8276   -10.3799 H            1 ATP148   0.0000
    39 H1'         31.3830    11.0804    -9.7691 H            1 ATP148   0.0000
    40 H9          33.0289     8.1470   -11.2394 H            1 ATP148   0.0000
    41 H10         36.2167    11.9411   -14.9790 H            1 ATP148   0.0000
    42 H11         36.0222    10.3163   -14.4115 H            1 ATP148   0.0000
    43 H12         33.0403    14.3292   -12.7450 H            1 ATP148   0.0000
@<TRIPOS>BOND
     1    1    2      ar
     2    1    3      ar
     3    1    4      ar
     4    1    8       1
     5    5    6      ar
     6    5    7      ar
     7    5    8       1
     8    5   12       1
     9    9   10      ar
    10    9   11      ar
    11    9   12       1
    12    9   13       1
    13   13   14       1
    14   14   15       1
    15   15   16       1
    16   15   17       1
    17   16   21       1
    18   17   18       1
    19   17   19       1
    20   19   20       1
    21   19   21       1
    22   21   22       1
    23   22   23       1
    24   22   31       1
    25   23   24       2
    26   24   25       1
    27   25   26      ar
    28   25   31      ar
    29   26   27       1
    30   26   28      ar
    31   28   29      ar
    32   29   30      ar
    33   30   31      ar
    34   29   43       1
    35   27   42       1
    36   27   41       1
    37   23   40       1
    38   14   32       1
    39   14   33       1
    40   15   34       1
    41   17   35       1
    42   18   36       1
    43   19   37       1
    44   20   38       1
    45   21   39       1
@<TRIPOS>SUBSTRUCTURE
     1 ATP148      1 GROUP             4 B     ATP     0 **** ATP B 148
