@<TRIPOS>MOLECULE
3i59_N6R_1_ligand
   53    57     1     0     0
SMALL
NO_CHARGES


@<TRIPOS>ATOM
     1 C5H         -5.3320    23.7490   -22.0450 C.ar         1 N6R301   0.0000
     2 C5F         -6.3230    24.8950   -21.6200 C.ar         1 N6R301   0.0000
     3 C5E         -6.2210    26.3040   -22.2920 C.ar         1 N6R301   0.0000
     4 C5G         -5.1020    26.6000   -23.4350 C.ar         1 N6R301   0.0000
     5 C5I         -4.1100    25.4530   -23.8580 C.ar         1 N6R301   0.0000
     6 C5U         -4.2110    24.0480   -23.1820 C.ar         1 N6R301   0.0000
     7 C5M         -3.2160    22.9180   -23.5720 C.3          1 N6R301   0.0000
     8 C5Y         -3.7650    22.1140   -24.7910 C.3          1 N6R301   0.0000
     9 C5A         -3.4670    22.9570   -26.0390 C.3          1 N6R301   0.0000
    10 N6          -2.9900    20.8560   -24.8720 N.pl3        1 N6R301   0.0000
    11 C6          -3.3340    19.6630   -24.0550 C.ar         1 N6R301   0.0000
    12 N1          -4.7130    19.2450   -23.8440 N.ar         1 N6R301   0.0000
    13 C2          -5.0520    17.9040   -23.0280 C.ar         1 N6R301   0.0000
    14 N3          -3.9100    17.0570   -22.4620 N.ar         1 N6R301   0.0000
    15 C4          -2.4940    17.4780   -22.6790 C.ar         1 N6R301   0.0000
    16 C5          -2.1700    18.7730   -23.4590 C.ar         1 N6R301   0.0000
    17 N7          -0.6910    18.9440   -23.4950 N.2          1 N6R301   0.0000
    18 C8          -0.0520    17.7410   -22.7170 C.2          1 N6R301   0.0000
    19 N9          -1.1630    16.8670   -22.2240 N.pl3        1 N6R301   0.0000
    20 C1S         -1.0120    15.5880   -21.5100 C.3          1 N6R301   0.0000
    21 O4S          0.0790    15.7830   -20.5620 O.3          1 N6R301   0.0000
    22 C4S          1.2870    15.4530   -21.3300 C.3          1 N6R301   0.0000
    23 C5S          2.5310    15.1270   -20.4430 C.3          1 N6R301   0.0000
    24 O5S          3.5500    14.4120   -21.1830 O.3          1 N6R301   0.0000
    25 P5           3.2340    13.8380   -22.7830 P.3          1 N6R301   0.0000
    26 O5D          3.7350    15.1000   -23.7130 O.2          1 N6R301   0.0000
    27 O5B          3.8700    12.5450   -22.9790 O.3          1 N6R301   0.0000
    28 O3S          1.7460    13.7320   -23.1400 O.3          1 N6R301   0.0000
    29 C3S          0.8640    14.1600   -22.0860 C.3          1 N6R301   0.0000
    30 C2S         -0.5460    14.4890   -22.5250 C.3          1 N6R301   0.0000
    31 O2S         -1.2340    13.3010   -22.2660 O.3          1 N6R301   0.0000
    32 H5H         -5.3917    22.8460   -21.6196 H            1 N6R301   0.0000
    33 H5F         -7.0172    24.7228   -20.9211 H            1 N6R301   0.0000
    34 H5E         -6.8504    27.0304   -22.0160 H            1 N6R301   0.0000
    35 H5G         -5.0448    27.5012   -23.8645 H            1 N6R301   0.0000
    36 H5I         -3.4165    25.6234   -24.5581 H            1 N6R301   0.0000
    37 H5M1        -3.0972    22.2998   -22.7950 H            1 N6R301   0.0000
    38 H5M2        -2.3342    23.3231   -23.8136 H            1 N6R301   0.0000
    39 H5Y         -4.7442    21.9338   -24.6979 H            1 N6R301   0.0000
    40 H5A1        -3.8025    22.4800   -26.8514 H            1 N6R301   0.0000
    41 H5A2        -3.9243    23.8428   -25.9599 H            1 N6R301   0.0000
    42 H5A3        -2.4801    23.0973   -26.1186 H            1 N6R301   0.0000
    43 H12         -2.2102    20.8070   -25.4961 H            1 N6R301   0.0000
    44 H13         -6.0023    17.6245   -22.8908 H            1 N6R301   0.0000
    45 H14          0.9256    17.5853   -22.5753 H            1 N6R301   0.0000
    46 H1S         -1.8580    15.3244   -21.0466 H            1 N6R301   0.0000
    47 H4S          1.5007    16.1839   -21.9782 H            1 N6R301   0.0000
    48 H5S1         2.2382    14.5643   -19.6699 H            1 N6R301   0.0000
    49 H5S2         2.9193    15.9837   -20.1035 H            1 N6R301   0.0000
    50 H3S          0.8091    13.4198   -21.4158 H            1 N6R301   0.0000
    51 H2S         -0.6055    14.7809   -23.4796 H            1 N6R301   0.0000
    52 H21         -1.3404    12.7853   -23.1161 H            1 N6R301   0.0000
    53 H5B          4.7958    12.6791   -23.3324 H            1 N6R301   0.0000
@<TRIPOS>BOND
     1    1    2      ar
     2    1    6      ar
     3    2    3      ar
     4    3    4      ar
     5    4    5      ar
     6    5    6      ar
     7    6    7       1
     8    7    8       1
     9    8    9       1
    10    8   10       1
    11   10   11       1
    12   11   12      ar
    13   11   16      ar
    14   12   13      ar
    15   13   14      ar
    16   14   15      ar
    17   15   16      ar
    18   15   19       1
    19   16   17       1
    20   17   18       2
    21   18   19       1
    22   19   20       1
    23   20   21       1
    24   20   30       1
    25   21   22       1
    26   22   23       1
    27   22   29       1
    28   23   24       1
    29   24   25       1
    30   25   26       2
    31   25   27       1
    32   25   28       1
    33   28   29       1
    34   29   30       1
    35   30   31       1
    36    1   32       1
    37    2   33       1
    38    3   34       1
    39    4   35       1
    40    5   36       1
    41    7   37       1
    42    7   38       1
    43    8   39       1
    44    9   40       1
    45    9   41       1
    46    9   42       1
    47   10   43       1
    48   13   44       1
    49   18   45       1
    50   20   46       1
    51   22   47       1
    52   23   48       1
    53   23   49       1
    54   31   52       1
    55   29   50       1
    56   30   51       1
    57   27   53       1
@<TRIPOS>SUBSTRUCTURE
     1 N6R301      1 GROUP             4 A     N6R     0 **** N6R A 301
