@<TRIPOS>MOLECULE
3fbe_GDP_2_ligand
   40    42     1     0     0
SMALL
NO_CHARGES


@<TRIPOS>ATOM
     1 PB          67.0770    61.4570    63.5020 P.3          1 GDP138   0.0000
     2 O1B         66.8840    60.9320    62.0940 O.co2        1 GDP138   0.0000
     3 O2B         67.4070    60.2870    64.4030 O.co2        1 GDP138  -1.0000
     4 O3B         65.7900    62.0870    63.9780 O.co2        1 GDP138  -1.0000
     5 O3A         68.3040    62.5270    63.5170 O.3          1 GDP138   0.0000
     6 PA          68.6100    63.5680    64.7280 P.3          1 GDP138   0.0000
     7 O1A         68.6790    62.8100    66.0400 O.co2        1 GDP138   0.0000
     8 O2A         67.5700    64.6640    64.7990 O.co2        1 GDP138  -1.0000
     9 O5'         70.0580    64.2020    64.3910 O.3          1 GDP138   0.0000
    10 C5'         70.4390    65.4430    64.9770 C.3          1 GDP138   0.0000
    11 C4'         69.7500    65.4870    66.3340 C.3          1 GDP138   0.0000
    12 O4'         70.3290    64.6250    67.3210 O.3          1 GDP138   0.0000
    13 C3'         69.6850    66.8650    66.9590 C.3          1 GDP138   0.0000
    14 O3'         68.6260    67.6190    66.3690 O.3          1 GDP138   0.0000
    15 C2'         69.3780    66.5240    68.3980 C.3          1 GDP138   0.0000
    16 O2'         67.9580    66.5300    68.5610 O.3          1 GDP138   0.0000
    17 C1'         69.8910    65.1040    68.6010 C.3          1 GDP138   0.0000
    18 N9          70.9730    65.0270    69.6260 N.pl3        1 GDP138   0.0000
    19 C8          70.8110    64.7110    70.9270 C.2          1 GDP138   0.0000
    20 N7          71.9990    64.7140    71.5880 N.2          1 GDP138   0.0000
    21 C5          72.9570    65.0100    70.6910 C.2          1 GDP138   0.0000
    22 C6          74.4290    65.1680    70.7170 C.2          1 GDP138   0.0000
    23 O6          75.0740    65.0160    71.7790 O.2          1 GDP138   0.0000
    24 N1          75.0420    65.4780    69.5650 N.2          1 GDP138   0.0000
    25 C2          74.3740    65.6480    68.4070 C.2          1 GDP138   0.0000
    26 N2          75.0720    65.9590    67.2890 N.pl3        1 GDP138   0.0000
    27 N3          73.0270    65.5190    68.3130 N.pl3        1 GDP138   0.0000
    28 C4          72.2790    65.2070    69.3990 C.2          1 GDP138   0.0000
    29 H5'1        70.1346    66.2059    64.4066 H            1 GDP138   0.0000
    30 H5'2        71.4318    65.4856    65.0886 H            1 GDP138   0.0000
    31 H4'         68.8076    65.1828    66.1949 H            1 GDP138   0.0000
    32 H3'         70.5599    67.3424    66.8776 H            1 GDP138   0.0000
    33 H5          68.7891    67.7106    65.3867 H            1 GDP138   0.0000
    34 H2'         69.8196    67.1643    69.0264 H            1 GDP138   0.0000
    35 H7          67.5234    66.7565    67.6893 H            1 GDP138   0.0000
    36 H1'         69.1278    64.5343    68.9058 H            1 GDP138   0.0000
    37 H9          69.9300    64.5014    71.3511 H            1 GDP138   0.0000
    38 H10         74.5933    66.0889    66.4207 H            1 GDP138   0.0000
    39 H11         76.0661    66.0587    67.3318 H            1 GDP138   0.0000
    40 H12         72.5794    65.6561    67.4293 H            1 GDP138   0.0000
@<TRIPOS>BOND
     1    1    2      ar
     2    1    3      ar
     3    1    4      ar
     4    1    5       1
     5    5    6       1
     6    6    7      ar
     7    6    8      ar
     8    6    9       1
     9    9   10       1
    10   10   11       1
    11   11   12       1
    12   11   13       1
    13   12   17       1
    14   13   14       1
    15   13   15       1
    16   15   16       1
    17   15   17       1
    18   17   18       1
    19   18   19       1
    20   18   28       1
    21   19   20       2
    22   20   21       1
    23   21   22       1
    24   21   28       2
    25   22   23       2
    26   22   24       1
    27   24   25       2
    28   25   26       1
    29   25   27       1
    30   27   28       1
    31   26   39       1
    32   26   38       1
    33   19   37       1
    34   10   29       1
    35   10   30       1
    36   11   31       1
    37   13   32       1
    38   14   33       1
    39   15   34       1
    40   16   35       1
    41   17   36       1
    42   27   40       1
@<TRIPOS>SUBSTRUCTURE
     1 GDP138      1 GROUP             4 B     GDP     0 **** GDP B 138
