@<TRIPOS>MOLECULE
2v57_PRL_1_ligand
   27    29     1     0     0
SMALL
NO_CHARGES


@<TRIPOS>ATOM
     1 C1           5.7110    -3.8290     4.7020 C.ar         1 PRL1188   0.0000
     2 C2           6.4370    -3.0180     3.8200 C.ar         1 PRL1188   0.0000
     3 C3           7.8300    -2.9470     3.9400 C.ar         1 PRL1188   0.0000
     4 C4           8.4930    -3.6860     4.9140 C.ar         1 PRL1188   0.0000
     5 C5           8.5040    -6.6940     8.5770 C.ar         1 PRL1188   0.0000
     6 C6           7.8300    -7.5120     9.4890 C.ar         1 PRL1188   0.0000
     7 C7           6.4510    -7.6270     9.4210 C.ar         1 PRL1188   0.0000
     8 C8           5.7400    -6.9250     8.4610 C.ar         1 PRL1188   0.0000
     9 C9           5.6840    -5.3820     6.5860 C.ar         1 PRL1188   0.0000
    10 N10          8.4280    -5.1940     6.7350 N.ar         1 PRL1188   0.0000
    11 C11          7.7690    -4.4840     5.7940 C.ar         1 PRL1188   0.0000
    12 C12          6.4010    -6.0980     7.5560 C.ar         1 PRL1188   0.0000
    13 C13          6.3790    -4.5650     5.6890 C.ar         1 PRL1188   0.0000
    14 C14          7.7810    -5.9940     7.6090 C.ar         1 PRL1188   0.0000
    15 N15          8.5350    -2.1670     3.0930 N.pl3        1 PRL1188   0.0000
    16 N16          8.5080    -8.2100    10.4340 N.pl3        1 PRL1188   0.0000
    17 H1           4.7153    -3.8825     4.6269 H            1 PRL1188   0.0000
    18 H2           5.9644    -2.4945     3.1111 H            1 PRL1188   0.0000
    19 H3           9.4898    -3.6437     4.9817 H            1 PRL1188   0.0000
    20 H4           9.4997    -6.6106     8.6178 H            1 PRL1188   0.0000
    21 H5           5.9675    -8.2182    10.0665 H            1 PRL1188   0.0000
    22 H6           4.7448    -7.0128     8.4176 H            1 PRL1188   0.0000
    23 H7           4.6879    -5.4550     6.5366 H            1 PRL1188   0.0000
    24 H8           9.5302    -2.1127     3.1744 H            1 PRL1188   0.0000
    25 H9           8.0620    -1.6436     2.3843 H            1 PRL1188   0.0000
    26 H10          8.0114    -8.7907    11.0791 H            1 PRL1188   0.0000
    27 H11          9.5045    -8.1438    10.4856 H            1 PRL1188   0.0000
@<TRIPOS>BOND
     1    1    2      ar
     2    1   13      ar
     3    2    3      ar
     4    3    4      ar
     5    3   15       1
     6    4   11      ar
     7    5    6      ar
     8    5   14      ar
     9    6    7      ar
    10    6   16       1
    11    7    8      ar
    12    8   12      ar
    13    9   12      ar
    14    9   13      ar
    15   10   11      ar
    16   10   14      ar
    17   11   13      ar
    18   12   14      ar
    19    1   17       1
    20    2   18       1
    21    4   19       1
    22    5   20       1
    23    7   21       1
    24    8   22       1
    25    9   23       1
    26   15   24       1
    27   15   25       1
    28   16   26       1
    29   16   27       1
@<TRIPOS>SUBSTRUCTURE
     1 PRL1188     1 GROUP             4 A     PRL     0 **** PRL A1188
