@<TRIPOS>MOLECULE
4o1m_NAD_6_ligand
   70    74     1     0     0
SMALL
NO_CHARGES


@<TRIPOS>ATOM
     1 PA          -1.1360   -31.4290    68.5830 P.3          1 NAD401   0.0000
     2 O1A         -1.1500   -32.9290    68.4040 O.co2        1 NAD401   0.0000
     3 O2A         -2.1840   -30.4920    68.0670 O.co2        1 NAD401  -1.0000
     4 O5B          0.3650   -30.9370    68.2590 O.3          1 NAD401   0.0000
     5 C5B          0.8020   -29.6400    68.6680 C.3          1 NAD401   0.0000
     6 C4B          0.6050   -28.7480    67.4560 C.3          1 NAD401   0.0000
     7 O4B          1.7310   -27.8700    67.3810 O.3          1 NAD401   0.0000
     8 C3B          0.5250   -29.4940    66.0970 C.3          1 NAD401   0.0000
     9 O3B         -0.5240   -28.8570    65.3220 O.3          1 NAD401   0.0000
    10 C2B          1.8610   -29.1610    65.4590 C.3          1 NAD401   0.0000
    11 O2B          1.7280   -29.1150    64.0440 O.3          1 NAD401   0.0000
    12 C1B          2.0900   -27.7520    65.9980 C.3          1 NAD401   0.0000
    13 N9A          3.4720   -27.2420    65.9130 N.pl3        1 NAD401   0.0000
    14 C8A          4.5690   -27.7840    66.4930 C.2          1 NAD401   0.0000
    15 N7A          5.6340   -26.9980    66.2210 N.2          1 NAD401   0.0000
    16 C5A          5.1660   -25.9710    65.4650 C.ar         1 NAD401   0.0000
    17 C6A          5.8140   -24.8090    64.8340 C.ar         1 NAD401   0.0000
    18 N6A          7.1500   -24.6020    64.9630 N.pl3        1 NAD401   0.0000
    19 N1A          5.0390   -23.9820    64.1370 N.ar         1 NAD401   0.0000
    20 C2A          3.7180   -24.1810    63.9900 C.ar         1 NAD401   0.0000
    21 N3A          3.1020   -25.2300    64.5630 N.ar         1 NAD401   0.0000
    22 C4A          3.8120   -26.1230    65.2830 C.ar         1 NAD401   0.0000
    23 O3          -0.9190   -31.2120    70.1510 O.3          1 NAD401   0.0000
    24 PN          -1.9120   -31.1870    71.4030 P.3          1 NAD401   0.0000
    25 O1N         -1.3390   -32.2690    72.2950 O.co2        1 NAD401   0.0000
    26 O2N         -3.3670   -30.8450    71.1770 O.co2        1 NAD401  -1.0000
    27 O5D         -1.1990   -29.8650    71.9890 O.3          1 NAD401   0.0000
    28 C5D         -1.7200   -28.5550    71.7520 C.3          1 NAD401   0.0000
    29 C4D         -1.3510   -27.6520    72.9390 C.3          1 NAD401   0.0000
    30 O4D         -1.9640   -28.1540    74.1280 O.3          1 NAD401   0.0000
    31 C3D          0.1370   -27.6480    73.2290 C.3          1 NAD401   0.0000
    32 O3D          0.4990   -26.3470    73.7110 O.3          1 NAD401   0.0000
    33 C2D          0.2860   -28.6190    74.3910 C.3          1 NAD401   0.0000
    34 O2D          1.4510   -28.3110    75.1590 O.3          1 NAD401   0.0000
    35 C1D         -1.0140   -28.3840    75.1610 C.3          1 NAD401   0.0000
    36 N1N         -1.2950   -29.5040    76.0850 N.ar         1 NAD401   1.0000
    37 C2N         -1.3770   -30.7900    75.6250 C.ar         1 NAD401   0.0000
    38 C3N         -1.5870   -31.8400    76.4980 C.ar         1 NAD401   0.0000
    39 C7N         -1.7900   -33.2500    76.0070 C.2          1 NAD401   0.0000
    40 O7N         -1.9441   -34.2210    76.7688 O.2          1 NAD401   0.0000
    41 N7N         -1.9422   -33.3785    74.7289 N.am         1 NAD401   0.0000
    42 C4N         -1.6870   -31.5760    77.8860 C.ar         1 NAD401   0.0000
    43 C5N         -1.6410   -30.2480    78.3500 C.ar         1 NAD401   0.0000
    44 C6N         -1.4200   -29.2270    77.4210 C.ar         1 NAD401   0.0000
    45 H5B1         1.7661   -29.6629    68.9327 H            1 NAD401   0.0000
    46 H5B2         0.2530   -29.3121    69.4368 H            1 NAD401   0.0000
    47 H4B         -0.2255   -28.2052    67.5807 H            1 NAD401   0.0000
    48 H3B          0.3827   -30.4780    66.2043 H            1 NAD401   0.0000
    49 H5          -0.1383   -28.4944    64.4737 H            1 NAD401   0.0000
    50 H2B          2.5806   -29.7930    65.7466 H            1 NAD401   0.0000
    51 H7           1.4913   -28.1854    63.7615 H            1 NAD401   0.0000
    52 H1B          1.4685   -27.1139    65.5435 H            1 NAD401   0.0000
    53 H8A          4.5879   -28.6257    67.0327 H            1 NAD401   0.0000
    54 H6A1         7.5772   -23.8087    64.5292 H            1 NAD401   0.0000
    55 H6A2         7.7065   -25.2429    65.4918 H            1 NAD401   0.0000
    56 H2A          3.1828   -23.5365    63.4439 H            1 NAD401   0.0000
    57 H5D1        -2.7148   -28.6005    71.6611 H            1 NAD401   0.0000
    58 H5D2        -1.3251   -28.1834    70.9118 H            1 NAD401   0.0000
    59 H4D         -1.6645   -26.7186    72.7646 H            1 NAD401   0.0000
    60 H3D          0.6787   -27.9220    72.4343 H            1 NAD401   0.0000
    61 H17          1.4449   -26.1479    73.4547 H            1 NAD401   0.0000
    62 H2D          0.3278   -29.5603    74.0560 H            1 NAD401   0.0000
    63 H19          1.3016   -28.5752    76.1118 H            1 NAD401   0.0000
    64 H1D         -0.9185   -27.5455    75.6975 H            1 NAD401   0.0000
    65 H2N         -1.2839   -30.9719    74.6461 H            1 NAD401   0.0000
    66 H7N1        -2.2894   -34.2366    74.3505 H            1 NAD401   0.0000
    67 H7N2        -1.7126   -32.6198    74.1193 H            1 NAD401   0.0000
    68 H4N         -1.7899   -32.3306    78.5341 H            1 NAD401   0.0000
    69 H5N         -1.7634   -30.0399    79.3204 H            1 NAD401   0.0000
    70 H6N         -1.3521   -28.2804    77.7362 H            1 NAD401   0.0000
@<TRIPOS>BOND
     1    1    2      ar
     2    1    3      ar
     3    1    4       1
     4    1   23       1
     5    4    5       1
     6    5    6       1
     7    6    7       1
     8    6    8       1
     9    7   12       1
    10    8    9       1
    11    8   10       1
    12   10   11       1
    13   10   12       1
    14   12   13       1
    15   13   14       1
    16   13   22       1
    17   14   15       2
    18   15   16       1
    19   16   17      ar
    20   16   22      ar
    21   17   18       1
    22   17   19      ar
    23   19   20      ar
    24   20   21      ar
    25   21   22      ar
    26   23   24       1
    27   24   25      ar
    28   24   26      ar
    29   24   27       1
    30   27   28       1
    31   28   29       1
    32   29   30       1
    33   29   31       1
    34   30   35       1
    35   31   32       1
    36   31   33       1
    37   33   34       1
    38   33   35       1
    39   35   36       1
    40   36   37      ar
    41   36   44      ar
    42   37   38      ar
    43   38   39       1
    44   38   42      ar
    45   39   40       2
    46   39   41      am
    47   42   43      ar
    48   43   44      ar
    49   44   70       1
    50    5   45       1
    51    5   46       1
    52    6   47       1
    53    8   48       1
    54    9   49       1
    55   10   50       1
    56   11   51       1
    57   12   52       1
    58   14   53       1
    59   18   54       1
    60   18   55       1
    61   20   56       1
    62   43   69       1
    63   28   57       1
    64   28   58       1
    65   29   59       1
    66   31   60       1
    67   32   61       1
    68   33   62       1
    69   34   63       1
    70   35   64       1
    71   37   65       1
    72   41   66       1
    73   41   67       1
    74   42   68       1
@<TRIPOS>SUBSTRUCTURE
     1 NAD401      1 GROUP             4 F     NAD     0 **** NAD F 401
