@<TRIPOS>MOLECULE
4pki_ATP_1_ligand
   43    45     1     0     0
SMALL
NO_CHARGES


@<TRIPOS>ATOM
     1 PG          -1.8040     4.5160   -21.4160 P.3          1 ATP401   0.0000
     2 O1G         -3.0600     3.6760   -21.2700 O.co2        1 ATP401   0.0000
     3 O2G         -1.5650     5.0630   -22.7820 O.co2        1 ATP401  -1.0000
     4 O3G         -1.5500     5.5130   -20.3020 O.co2        1 ATP401  -1.0000
     5 PB           0.2750     2.9580   -20.0840 P.3          1 ATP401   0.0000
     6 O1B          0.5020     1.4900   -20.2570 O.co2        1 ATP401   0.0000
     7 O2B         -0.3410     3.4400   -18.8120 O.co2        1 ATP401  -1.0000
     8 O3B         -0.5790     3.4550   -21.3570 O.3          1 ATP401   0.0000
     9 PA           2.8060     4.0820   -19.3830 P.3          1 ATP401   0.0000
    10 O1A          2.6280     5.4910   -18.8950 O.co2        1 ATP401   0.0000
    11 O2A          3.0430     3.0060   -18.3780 O.co2        1 ATP401  -1.0000
    12 O3A          1.6390     3.7320   -20.4070 O.3          1 ATP401   0.0000
    13 O5'          4.0640     4.2460   -20.3410 O.3          1 ATP401   0.0000
    14 C5'          4.5280     3.2370   -21.2300 C.3          1 ATP401   0.0000
    15 C4'          4.9330     3.9320   -22.5300 C.3          1 ATP401   0.0000
    16 O4'          5.9160     4.9310   -22.2750 O.3          1 ATP401   0.0000
    17 C3'          5.5300     2.9690   -23.5410 C.3          1 ATP401   0.0000
    18 O3'          5.0910     3.2880   -24.8850 O.3          1 ATP401   0.0000
    19 C2'          7.0140     3.1830   -23.3380 C.3          1 ATP401   0.0000
    20 O2'          7.8040     2.7820   -24.4460 O.3          1 ATP401   0.0000
    21 C1'          7.0750     4.6790   -23.0830 C.3          1 ATP401   0.0000
    22 N9           8.3390     5.0190   -22.3980 N.pl3        1 ATP401   0.0000
    23 C8           8.7610     4.4350   -21.2490 C.2          1 ATP401   0.0000
    24 N7           9.9610     4.9410   -20.8580 N.2          1 ATP401   0.0000
    25 C5          10.3240     5.8590   -21.7840 C.ar         1 ATP401   0.0000
    26 C6          11.4910     6.7330   -21.9820 C.ar         1 ATP401   0.0000
    27 N6          12.5100     6.7370   -21.0840 N.pl3        1 ATP401   0.0000
    28 N1          11.4860     7.5290   -23.0760 N.ar         1 ATP401   0.0000
    29 C2          10.4760     7.5300   -23.9690 C.ar         1 ATP401   0.0000
    30 N3           9.3810     6.7570   -23.8520 N.ar         1 ATP401   0.0000
    31 C4           9.2570     5.9030   -22.8010 C.ar         1 ATP401   0.0000
    32 H5'1         3.7995     2.5754   -21.4077 H            1 ATP401   0.0000
    33 H5'2         5.3161     2.7665   -20.8330 H            1 ATP401   0.0000
    34 H4'          4.1262     4.3654   -22.9315 H            1 ATP401   0.0000
    35 H3'          5.2818     2.0281   -23.3105 H            1 ATP401   0.0000
    36 H5           4.6009     2.5060   -25.2700 H            1 ATP401   0.0000
    37 H2'          7.3132     2.6923   -22.5196 H            1 ATP401   0.0000
    38 H7           8.7021     2.4823   -24.1240 H            1 ATP401   0.0000
    39 H1'          7.0070     5.1781   -23.9469 H            1 ATP401   0.0000
    40 H9           8.2568     3.7266   -20.7551 H            1 ATP401   0.0000
    41 H10         13.2994     7.3341   -21.2262 H            1 ATP401   0.0000
    42 H11         12.4708     6.1428   -20.2806 H            1 ATP401   0.0000
    43 H12         10.5443     8.1375   -24.7604 H            1 ATP401   0.0000
@<TRIPOS>BOND
     1    1    2      ar
     2    1    3      ar
     3    1    4      ar
     4    1    8       1
     5    5    6      ar
     6    5    7      ar
     7    5    8       1
     8    5   12       1
     9    9   10      ar
    10    9   11      ar
    11    9   12       1
    12    9   13       1
    13   13   14       1
    14   14   15       1
    15   15   16       1
    16   15   17       1
    17   16   21       1
    18   17   18       1
    19   17   19       1
    20   19   20       1
    21   19   21       1
    22   21   22       1
    23   22   23       1
    24   22   31       1
    25   23   24       2
    26   24   25       1
    27   25   26      ar
    28   25   31      ar
    29   26   27       1
    30   26   28      ar
    31   28   29      ar
    32   29   30      ar
    33   30   31      ar
    34   29   43       1
    35   27   42       1
    36   27   41       1
    37   23   40       1
    38   14   32       1
    39   14   33       1
    40   15   34       1
    41   17   35       1
    42   18   36       1
    43   19   37       1
    44   20   38       1
    45   21   39       1
@<TRIPOS>SUBSTRUCTURE
     1 ATP401      1 GROUP             4 A     ATP     0 **** ATP A 401
