@<TRIPOS>MOLECULE
2hy8_1ST_1_ligand
   63    70     1     0     0
SMALL
NO_CHARGES


@<TRIPOS>ATOM
     1 C1          10.3990    70.1410    13.5350 C.ar         1 1ST201   0.0000
     2 C2           9.0730    70.4100    13.9160 C.ar         1 1ST201   0.0000
     3 C3           8.7100    70.5430    15.2650 C.ar         1 1ST201   0.0000
     4 C4           9.6490    70.4080    16.3080 C.ar         1 1ST201   0.0000
     5 C5          11.0180    70.1330    15.9580 C.ar         1 1ST201   0.0000
     6 N6          12.1880    69.9530    16.7420 N.pl3        1 1ST201   0.0000
     7 C7          13.2660    69.7270    15.8600 C.ar         1 1ST201   0.0000
     8 C8          14.6690    69.5200    16.1400 C.ar         1 1ST201   0.0000
     9 N9          15.3410    69.4560    17.3470 N.pl3        1 1ST201   0.0000
    10 C10         16.7070    69.2800    17.1150 C.ar         1 1ST201   0.0000
    11 C11         17.8190    69.1680    18.0100 C.ar         1 1ST201   0.0000
    12 C12         19.1020    69.0090    17.4460 C.ar         1 1ST201   0.0000
    13 C13         19.3000    68.9450    16.0580 C.ar         1 1ST201   0.0000
    14 C14         18.2130    69.0340    15.1510 C.ar         1 1ST201   0.0000
    15 C15         16.9060    69.1980    15.6940 C.ar         1 1ST201   0.0000
    16 C16         15.5910    69.3470    15.0620 C.ar         1 1ST201   0.0000
    17 C17         15.1040    69.3460    13.6880 C.ar         1 1ST201   0.0000
    18 C18         15.7810    69.1840    12.3730 C.2          1 1ST201   0.0000
    19 N19         14.8900    69.2740    11.3620 N.am         1 1ST201   0.0000
    20 C20         13.5550    69.5100    11.9290 C.3          1 1ST201   0.0000
    21 C21         13.7270    69.5480    13.4390 C.ar         1 1ST201   0.0000
    22 C22         12.8080    69.7510    14.5070 C.ar         1 1ST201   0.0000
    23 C23         11.3710    70.0010    14.5700 C.ar         1 1ST201   0.0000
    24 C24         12.3690    70.0170    18.2430 C.3          1 1ST201   0.0000
    25 C25         12.6290    71.4970    18.6670 C.3          1 1ST201   0.0000
    26 C26         13.6250    71.5050    19.8600 C.3          1 1ST201   0.0000
    27 C27         14.9780    70.9410    19.3550 C.3          1 1ST201   0.0000
    28 C28         14.7700    69.5650    18.7040 C.3          1 1ST201   0.0000
    29 O29         13.4060    69.1330    18.6980 O.3          1 1ST201   0.0000
    30 O30         16.9700    68.9870    12.2190 O.2          1 1ST201   0.0000
    31 N31         13.7420    72.9010    20.4350 N.4          1 1ST201   1.0000
    32 C32         14.8700    73.6740    19.8440 C.3          1 1ST201   0.0000
    33 O33         13.2450    72.2140    17.5590 O.3          1 1ST201   0.0000
    34 C34         12.3550    73.2590    17.1520 C.3          1 1ST201   0.0000
    35 C35         11.1140    69.5500    19.0110 C.3          1 1ST201   0.0000
    36 O36         20.5650    68.8040    15.5730 O.3          1 1ST201   0.0000
    37 H1          10.6523    70.0509    12.5718 H            1 1ST201   0.0000
    38 H2           8.3722    70.5089    13.2095 H            1 1ST201   0.0000
    39 H3           7.7565    70.7395    15.4934 H            1 1ST201   0.0000
    40 H4           9.3717    70.5007    17.2643 H            1 1ST201   0.0000
    41 H5          17.6904    69.2014    19.0011 H            1 1ST201   0.0000
    42 H6          19.8938    68.9398    18.0529 H            1 1ST201   0.0000
    43 H7          18.3592    68.9833    14.1630 H            1 1ST201   0.0000
    44 H8          15.1035    69.1934    10.3884 H            1 1ST201   0.0000
    45 H9          12.9343    68.7697    11.6707 H            1 1ST201   0.0000
    46 H10         13.1896    70.3812    11.6010 H            1 1ST201   0.0000
    47 H11         11.7706    71.9376    18.9298 H            1 1ST201   0.0000
    48 H12         13.2731    70.8969    20.5716 H            1 1ST201   0.0000
    49 H13         15.6065    70.8493    20.1274 H            1 1ST201   0.0000
    50 H14         15.3670    71.5695    18.6815 H            1 1ST201   0.0000
    51 H15         15.2686    68.9092    19.2708 H            1 1ST201   0.0000
    52 H16         13.8858    72.8294    21.4220 H            1 1ST201   0.0000
    53 H17         14.9025    74.5844    20.2565 H            1 1ST201   0.0000
    54 H18         15.7305    73.1966    20.0218 H            1 1ST201   0.0000
    55 H19         14.7342    73.7599    18.8570 H            1 1ST201   0.0000
    56 H20         12.7605    73.7644    16.3904 H            1 1ST201   0.0000
    57 H21         11.4844    72.8614    16.8623 H            1 1ST201   0.0000
    58 H22         12.1984    73.8811    17.9191 H            1 1ST201   0.0000
    59 H23         11.2834    69.6108    19.9947 H            1 1ST201   0.0000
    60 H24         10.3389    70.1339    18.7695 H            1 1ST201   0.0000
    61 H25         10.9067    68.6028    18.7663 H            1 1ST201   0.0000
    62 H26         20.7198    68.7571    14.5862 H            1 1ST201   0.0000
    63 H27         12.8895    73.3926    20.2572 H            1 1ST201   0.0000
@<TRIPOS>BOND
     1    1    2      ar
     2    1   23      ar
     3    2    3      ar
     4    3    4      ar
     5    4    5      ar
     6    5    6       1
     7    5   23      ar
     8    6    7       1
     9    6   24       1
    10    7    8      ar
    11    7   22      ar
    12    8    9       1
    13    8   16      ar
    14    9   10       1
    15    9   28       1
    16   10   11      ar
    17   10   15      ar
    18   11   12      ar
    19   12   13      ar
    20   13   14      ar
    21   13   36       1
    22   14   15      ar
    23   15   16       1
    24   16   17      ar
    25   17   18       1
    26   17   21      ar
    27   18   19      am
    28   18   30       2
    29   19   20       1
    30   20   21       1
    31   21   22      ar
    32   22   23       1
    33   24   25       1
    34   24   29       1
    35   24   35       1
    36   25   26       1
    37   25   33       1
    38   26   27       1
    39   26   31       1
    40   27   28       1
    41   28   29       1
    42   31   32       1
    43   33   34       1
    44    1   37       1
    45    2   38       1
    46    3   39       1
    47    4   40       1
    48   11   41       1
    49   12   42       1
    50   14   43       1
    51   19   44       1
    52   20   45       1
    53   20   46       1
    54   25   47       1
    55   26   48       1
    56   27   49       1
    57   27   50       1
    58   28   51       1
    59   31   52       1
    60   32   53       1
    61   32   54       1
    62   32   55       1
    63   34   56       1
    64   34   57       1
    65   34   58       1
    66   35   59       1
    67   35   60       1
    68   35   61       1
    69   36   62       1
    70   31   63       1
@<TRIPOS>SUBSTRUCTURE
     1 1ST201      1 GROUP             4 1     1ST     0 **** 1ST 1 201
