@<TRIPOS>MOLECULE
1kws_UGA_1_ligand
   56    58     1     0     0
SMALL
NO_CHARGES


@<TRIPOS>ATOM
     1 C1'         24.2110     3.5020    12.3750 C.3          1 UGA404   0.0000
     2 C2'         22.9960     3.4450    11.3600 C.3          1 UGA404   0.0000
     3 O2'         21.9450     4.2680    11.8480 O.3          1 UGA404   0.0000
     4 C3'         22.5140     1.9690    11.3190 C.3          1 UGA404   0.0000
     5 O3'         21.4210     1.8200    10.4250 O.3          1 UGA404   0.0000
     6 C4'         23.6720     1.1250    10.7730 C.3          1 UGA404   0.0000
     7 O4'         23.2980    -0.2480    10.6940 O.3          1 UGA404   0.0000
     8 C5'         24.9210     1.2160    11.7140 C.3          1 UGA404   0.0000
     9 O5'         25.3090     2.6360    11.8700 O.3          1 UGA404   0.0000
    10 C6'         26.1330     0.4120    11.1820 C.2          1 UGA404   0.0000
    11 O'P         25.8560    -0.6710    10.4530 O.co2        1 UGA404   0.0000
    12 O'Q         27.2730     0.7230    11.3850 O.co2        1 UGA404  -1.0000
    13 PB          24.4420     2.9140    15.0300 P.3          1 UGA404   0.0000
    14 O1B         23.5250     3.5690    15.9690 O.co2        1 UGA404   0.0000
    15 O2B         25.8830     3.2910    14.9290 O.co2        1 UGA404  -1.0000
    16 O3B         23.7150     3.0660    13.6460 O.3          1 UGA404   0.0000
    17 O3A         24.4060     1.3600    15.2970 O.3          1 UGA404   0.0000
    18 PA          23.5760     0.3620    16.1930 P.3          1 UGA404   0.0000
    19 O1A         22.4900     1.1890    16.7980 O.co2        1 UGA404   0.0000
    20 O2A         24.5360    -0.2190    17.1310 O.co2        1 UGA404  -1.0000
    21 O5D         23.0570    -0.8130    15.2220 O.3          1 UGA404   0.0000
    22 C5D         21.9400    -0.6740    14.3540 C.3          1 UGA404   0.0000
    23 C4D         20.9580    -1.8240    14.5510 C.3          1 UGA404   0.0000
    24 O4D         21.6090    -3.1240    14.3300 O.3          1 UGA404   0.0000
    25 C3D         20.3760    -1.8440    15.9600 C.3          1 UGA404   0.0000
    26 O3D         18.9520    -2.0740    15.8710 O.3          1 UGA404   0.0000
    27 C2D         21.1190    -2.9840    16.6500 C.3          1 UGA404   0.0000
    28 O2D         20.3430    -3.5980    17.6630 O.3          1 UGA404   0.0000
    29 C1D         21.4370    -3.9390    15.5150 C.3          1 UGA404   0.0000
    30 N1          22.6330    -4.7390    15.8560 N.pl3        1 UGA404   0.0000
    31 C6          23.8450    -4.1230    16.1650 C.2          1 UGA404   0.0000
    32 C2          22.5020    -6.1250    15.8520 C.2          1 UGA404   0.0000
    33 O2          21.4560    -6.7000    15.5850 O.2          1 UGA404   0.0000
    34 N3          23.6670    -6.8070    16.1810 N.pl3        1 UGA404   0.0000
    35 C4          24.9060    -6.2410    16.5010 C.2          1 UGA404   0.0000
    36 O4          25.8600    -6.9460    16.7740 O.2          1 UGA404   0.0000
    37 C5          24.9430    -4.8100    16.4770 C.2          1 UGA404   0.0000
    38 H1'         24.5379     4.4440    12.4505 H            1 UGA404   0.0000
    39 H2'         23.2839     3.7456    10.4507 H            1 UGA404   0.0000
    40 H3          21.7462     4.9855    11.1805 H            1 UGA404   0.0000
    41 H3'         22.2593     1.6600    12.2353 H            1 UGA404   0.0000
    42 H5          20.5638     1.9616    10.9201 H            1 UGA404   0.0000
    43 H4'         23.9198     1.4534     9.8615 H            1 UGA404   0.0000
    44 H7          24.1071    -0.8217    10.8211 H            1 UGA404   0.0000
    45 H5'         24.6694     0.8548    12.6119 H            1 UGA404   0.0000
    46 H5D1        22.2589    -0.6733    13.4062 H            1 UGA404   0.0000
    47 H5D2        21.4771     0.1903    14.5506 H            1 UGA404   0.0000
    48 H4D         20.2096    -1.7236    13.8954 H            1 UGA404   0.0000
    49 H3D         20.5599    -0.9777    16.4245 H            1 UGA404   0.0000
    50 H13         18.7708    -3.0571    15.8981 H            1 UGA404   0.0000
    51 H2D         21.9703    -2.6380    17.0444 H            1 UGA404   0.0000
    52 H15         19.7187    -2.9246    18.0589 H            1 UGA404   0.0000
    53 H1D         20.6605    -4.5542    15.3785 H            1 UGA404   0.0000
    54 H17         23.8921    -3.1242    16.1519 H            1 UGA404   0.0000
    55 H18         23.6146    -7.8056    16.1900 H            1 UGA404   0.0000
    56 H19         25.7914    -4.3271    16.6940 H            1 UGA404   0.0000
@<TRIPOS>BOND
     1    1    2       1
     2    1    9       1
     3    1   16       1
     4    2    3       1
     5    2    4       1
     6    4    5       1
     7    4    6       1
     8    6    7       1
     9    6    8       1
    10    8    9       1
    11    8   10       1
    12   10   11      ar
    13   10   12      ar
    14   13   14      ar
    15   13   15      ar
    16   13   16       1
    17   13   17       1
    18   17   18       1
    19   18   19      ar
    20   18   20      ar
    21   18   21       1
    22   21   22       1
    23   22   23       1
    24   23   24       1
    25   23   25       1
    26   24   29       1
    27   25   26       1
    28   25   27       1
    29   27   28       1
    30   27   29       1
    31   29   30       1
    32   30   31       1
    33   30   32       1
    34   31   37       2
    35   32   33       2
    36   32   34       1
    37   34   35       1
    38   35   36       2
    39   35   37       1
    40    1   38       1
    41    2   39       1
    42    3   40       1
    43    4   41       1
    44    5   42       1
    45    6   43       1
    46    7   44       1
    47    8   45       1
    48   37   56       1
    49   34   55       1
    50   31   54       1
    51   22   46       1
    52   22   47       1
    53   23   48       1
    54   25   49       1
    55   26   50       1
    56   27   51       1
    57   28   52       1
    58   29   53       1
@<TRIPOS>SUBSTRUCTURE
     1 UGA404      1 GROUP             4 A     UGA     0 **** UGA A 404
