@<TRIPOS>MOLECULE
4lwp_SAH_2_ligand
   46    48     1     0     0
SMALL
NO_CHARGES


@<TRIPOS>ATOM
     1 N          -28.4270    32.7850   -18.9580 N.4          1 SAH407   1.0000
     2 CA         -27.1140    32.2460   -18.6540 C.3          1 SAH407   0.0000
     3 CB         -26.0900    32.6460   -19.7090 C.3          1 SAH407   0.0000
     4 CG         -26.1250    34.0850   -20.2290 C.3          1 SAH407   0.0000
     5 SD         -24.6790    34.3930   -21.2870 S.3          1 SAH407   0.0000
     6 C          -26.7050    32.7250   -17.2750 C.2          1 SAH407   0.0000
     7 O          -25.7850    32.1660   -16.6620 O.co2        1 SAH407   0.0000
     8 OXT        -27.3050    33.6810   -16.7580 O.co2        1 SAH407  -1.0000
     9 C5'        -25.7410    34.7320   -22.7120 C.3          1 SAH407   0.0000
    10 C4'        -25.9920    33.5130   -23.6100 C.3          1 SAH407   0.0000
    11 O4'        -26.8530    33.9120   -24.6550 O.3          1 SAH407   0.0000
    12 C3'        -24.7760    32.8770   -24.2840 C.3          1 SAH407   0.0000
    13 O3'        -24.7640    31.4960   -23.9710 O.3          1 SAH407   0.0000
    14 C2'        -25.0210    33.0530   -25.7830 C.3          1 SAH407   0.0000
    15 O2'        -24.7210    31.9020   -26.5330 O.3          1 SAH407   0.0000
    16 C1'        -26.5180    33.2510   -25.8490 C.3          1 SAH407   0.0000
    17 N9         -26.9960    34.1420   -26.9090 N.pl3        1 SAH407   0.0000
    18 C8         -26.4990    35.3750   -27.2440 C.2          1 SAH407   0.0000
    19 N7         -27.2520    35.8640   -28.2450 N.2          1 SAH407   0.0000
    20 C5         -28.2320    34.9730   -28.5360 C.ar         1 SAH407   0.0000
    21 C6         -29.2620    34.9960   -29.4690 C.ar         1 SAH407   0.0000
    22 N6         -29.4020    36.0530   -30.2810 N.pl3        1 SAH407   0.0000
    23 N1         -30.1220    33.9170   -29.5420 N.ar         1 SAH407   0.0000
    24 C2         -29.9620    32.8330   -28.6880 C.ar         1 SAH407   0.0000
    25 N3         -28.9330    32.8180   -27.7640 N.ar         1 SAH407   0.0000
    26 C4         -28.0880    33.8790   -27.6960 C.ar         1 SAH407   0.0000
    27 H1         -29.1304    32.1710   -18.6000 H            1 SAH407   0.0000
    28 H2         -28.5238    33.6857   -18.5345 H            1 SAH407   0.0000
    29 HA         -27.1776    31.2482   -18.6367 H            1 SAH407   0.0000
    30 HB1        -26.2202    32.0417   -20.4951 H            1 SAH407   0.0000
    31 HB2        -25.1828    32.4926   -19.3172 H            1 SAH407   0.0000
    32 HG1        -26.1109    34.7181   -19.4550 H            1 SAH407   0.0000
    33 HG2        -26.9607    34.2259   -20.7598 H            1 SAH407   0.0000
    34 H5'1       -25.3081    35.4448   -23.2638 H            1 SAH407   0.0000
    35 H5'2       -26.6232    35.0609   -22.3751 H            1 SAH407   0.0000
    36 H4'        -26.4560    32.8118   -23.0686 H            1 SAH407   0.0000
    37 H3'        -23.9272    33.3224   -23.9990 H            1 SAH407   0.0000
    38 H12        -25.6039    31.0705   -24.3080 H            1 SAH407   0.0000
    39 H2'        -24.5349    33.8519   -26.1372 H            1 SAH407   0.0000
    40 H14        -25.2921    31.1427   -26.2211 H            1 SAH407   0.0000
    41 H1'        -26.9840    32.3677   -25.9004 H            1 SAH407   0.0000
    42 H16        -25.7160    35.8297   -26.8196 H            1 SAH407   0.0000
    43 H17        -30.1420    36.0725   -30.9533 H            1 SAH407   0.0000
    44 H18        -28.7664    36.8222   -30.2146 H            1 SAH407   0.0000
    45 H19        -30.5939    32.0598   -28.7416 H            1 SAH407   0.0000
    46 H20        -28.5313    32.8696   -19.9489 H            1 SAH407   0.0000
@<TRIPOS>BOND
     1    1    2       1
     2    2    3       1
     3    2    6       1
     4    3    4       1
     5    4    5       1
     6    5    9       1
     7    6    7      ar
     8    6    8      ar
     9    9   10       1
    10   10   11       1
    11   10   12       1
    12   11   16       1
    13   12   13       1
    14   12   14       1
    15   14   15       1
    16   14   16       1
    17   16   17       1
    18   17   18       1
    19   17   26       1
    20   18   19       2
    21   19   20       1
    22   20   21      ar
    23   20   26      ar
    24   21   22       1
    25   21   23      ar
    26   23   24      ar
    27   24   25      ar
    28   25   26      ar
    29    1   27       1
    30    1   28       1
    31    2   29       1
    32    3   30       1
    33    3   31       1
    34    4   32       1
    35    4   33       1
    36    1   46       1
    37    9   34       1
    38    9   35       1
    39   10   36       1
    40   12   37       1
    41   13   38       1
    42   14   39       1
    43   15   40       1
    44   16   41       1
    45   18   42       1
    46   22   43       1
    47   22   44       1
    48   24   45       1
@<TRIPOS>SUBSTRUCTURE
     1 SAH407      1 GROUP             4 B     SAH     0 **** SAH B 407
