@<TRIPOS>MOLECULE
4dvq_1CA_10_ligand
   54    57     1     0     0
SMALL
NO_CHARGES


@<TRIPOS>ATOM
     1 C1          12.3330   -19.8090    61.6090 C.3          1 1CA602   0.0000
     2 C2          12.8860   -18.8740    62.6360 C.3          1 1CA602   0.0000
     3 C3          13.4130   -17.6340    61.9980 C.2          1 1CA602   0.0000
     4 C4          12.8260   -17.1360    60.7420 C.2          1 1CA602   0.0000
     5 C5          11.9140   -17.8540    60.0740 C.2          1 1CA602   0.0000
     6 C6          11.3620   -17.2850    58.7800 C.3          1 1CA602   0.0000
     7 C7          11.4530   -18.2810    57.6360 C.3          1 1CA602   0.0000
     8 C8          10.9010   -19.6330    58.0550 C.3          1 1CA602   0.0000
     9 C9          11.5360   -20.1570    59.3390 C.3          1 1CA602   0.0000
    10 C10         11.4320   -19.2100    60.5410 C.3          1 1CA602   0.0000
    11 C11         11.0020   -21.5640    59.6740 C.3          1 1CA602   0.0000
    12 C12         11.2210   -22.5750    58.5510 C.3          1 1CA602   0.0000
    13 C13         10.6580   -22.0520    57.2460 C.3          1 1CA602   0.0000
    14 C14         11.2060   -20.6610    56.9770 C.3          1 1CA602   0.0000
    15 C15         10.7090   -20.3510    55.5760 C.3          1 1CA602   0.0000
    16 C16         10.7990   -21.7130    54.8840 C.3          1 1CA602   0.0000
    17 C17         11.1420   -22.7420    55.9810 C.3          1 1CA602   0.0000
    18 C18          9.1280   -22.0640    57.3210 C.3          1 1CA602   0.0000
    19 C19         10.0010   -19.1570    61.0730 C.3          1 1CA602   0.0000
    20 C20         10.5780   -24.1230    55.7300 C.2          1 1CA602   0.0000
    21 C21         11.0180   -25.2960    56.5820 C.3          1 1CA602   0.0000
    22 O3          14.3420   -17.0710    62.5430 O.2          1 1CA602   0.0000
    23 O20          9.7850   -24.3300    54.8190 O.2          1 1CA602   0.0000
    24 O21         10.3740   -26.4970    56.1160 O.3          1 1CA602   0.0000
    25 H1          11.8050   -20.5081    62.0912 H            1 1CA602   0.0000
    26 H2          13.1074   -20.2379    61.1439 H            1 1CA602   0.0000
    27 H3          13.6278   -19.3297    63.1280 H            1 1CA602   0.0000
    28 H4          12.1609   -18.6284    63.2793 H            1 1CA602   0.0000
    29 H5          13.1130   -16.2480    60.3826 H            1 1CA602   0.0000
    30 H6          11.8840   -16.4670    58.5383 H            1 1CA602   0.0000
    31 H7          10.4026   -17.0393    58.9186 H            1 1CA602   0.0000
    32 H8          12.4106   -18.3863    57.3680 H            1 1CA602   0.0000
    33 H9          10.9253   -17.9375    56.8591 H            1 1CA602   0.0000
    34 H10          9.9110   -19.5641    58.1779 H            1 1CA602   0.0000
    35 H11         12.5117   -20.2639    59.1478 H            1 1CA602   0.0000
    36 H12         10.0206   -21.4967    59.8539 H            1 1CA602   0.0000
    37 H13         11.4693   -21.8941    60.4941 H            1 1CA602   0.0000
    38 H14         10.7630   -23.4322    58.7865 H            1 1CA602   0.0000
    39 H15         12.2015   -22.7396    58.4435 H            1 1CA602   0.0000
    40 H16         12.2012   -20.7433    56.9235 H            1 1CA602   0.0000
    41 H17         11.2948   -19.6773    55.1255 H            1 1CA602   0.0000
    42 H18          9.7671   -20.0156    55.5926 H            1 1CA602   0.0000
    43 H19         11.5161   -21.6994    54.1872 H            1 1CA602   0.0000
    44 H20          9.9240   -21.9419    54.4574 H            1 1CA602   0.0000
    45 H21         12.1377   -22.8191    56.0323 H            1 1CA602   0.0000
    46 H22          8.7494   -21.7196    56.4619 H            1 1CA602   0.0000
    47 H23          8.8091   -22.9993    57.4746 H            1 1CA602   0.0000
    48 H24          8.8267   -21.4810    58.0755 H            1 1CA602   0.0000
    49 H25          9.4008   -18.7640    60.3764 H            1 1CA602   0.0000
    50 H26          9.6933   -20.0823    61.2946 H            1 1CA602   0.0000
    51 H27          9.9722   -18.5900    61.8962 H            1 1CA602   0.0000
    52 H28         10.7637   -25.1297    57.5347 H            1 1CA602   0.0000
    53 H29         12.0101   -25.4026    56.5155 H            1 1CA602   0.0000
    54 H30         10.6282   -26.6634    55.1633 H            1 1CA602   0.0000
@<TRIPOS>BOND
     1    1    2       1
     2    1   10       1
     3    2    3       1
     4    3    4       1
     5    3   22       2
     6    4    5       2
     7    5    6       1
     8    5   10       1
     9    6    7       1
    10    7    8       1
    11    8    9       1
    12    8   14       1
    13    9   10       1
    14    9   11       1
    15   10   19       1
    16   11   12       1
    17   12   13       1
    18   13   14       1
    19   13   17       1
    20   13   18       1
    21   14   15       1
    22   15   16       1
    23   16   17       1
    24   17   20       1
    25   20   21       1
    26   20   23       2
    27   21   24       1
    28    1   25       1
    29    1   26       1
    30    2   27       1
    31    2   28       1
    32    4   29       1
    33    6   30       1
    34    6   31       1
    35    7   32       1
    36    7   33       1
    37    8   34       1
    38    9   35       1
    39   11   36       1
    40   11   37       1
    41   12   38       1
    42   12   39       1
    43   14   40       1
    44   15   41       1
    45   15   42       1
    46   16   43       1
    47   16   44       1
    48   17   45       1
    49   18   46       1
    50   18   47       1
    51   18   48       1
    52   19   49       1
    53   19   50       1
    54   19   51       1
    55   21   52       1
    56   21   53       1
    57   24   54       1
@<TRIPOS>SUBSTRUCTURE
     1 1CA602      1 GROUP             4 J     1CA     0 **** 1CA J 602
