@<TRIPOS>MOLECULE
4pp6_STL_1_ligand
   29    30     1     0     0
SMALL
NO_CHARGES


@<TRIPOS>ATOM
     1 C1          27.1890    16.7070     9.3480 C.ar         1 STL601   0.0000
     2 C2          26.9500    16.2890    10.6510 C.ar         1 STL601   0.0000
     3 C3          25.6910    15.8280    11.0030 C.ar         1 STL601   0.0000
     4 C4          24.6590    15.8050    10.0670 C.ar         1 STL601   0.0000
     5 C5          24.8990    16.2070     8.7550 C.ar         1 STL601   0.0000
     6 C6          26.1630    16.6830     8.4060 C.ar         1 STL601   0.0000
     7 C7          23.8640    16.2040     7.8200 C.2          1 STL601   0.0000
     8 C8          24.1490    16.6000     6.3690 C.2          1 STL601   0.0000
     9 C9          23.1480    16.6160     5.4060 C.ar         1 STL601   0.0000
    10 C10         23.4870    17.0220     4.1220 C.ar         1 STL601   0.0000
    11 C11         22.5160    17.0830     3.1300 C.ar         1 STL601   0.0000
    12 C12         21.2000    16.7490     3.4210 C.ar         1 STL601   0.0000
    13 C13         20.8560    16.3530     4.7130 C.ar         1 STL601   0.0000
    14 C14         21.8300    16.2860     5.7050 C.ar         1 STL601   0.0000
    15 O1          20.2570    16.8160     2.4400 O.3          1 STL601   0.0000
    16 O2          25.4800    15.4160    12.2750 O.3          1 STL601   0.0000
    17 O3          28.4250    17.1620     9.0040 O.3          1 STL601   0.0000
    18 H1          27.6822    16.3205    11.3314 H            1 STL601   0.0000
    19 H2          23.7458    15.4998    10.3372 H            1 STL601   0.0000
    20 H3          26.3333    17.0083     7.4758 H            1 STL601   0.0000
    21 H4          22.9388    15.9440     8.0966 H            1 STL601   0.0000
    22 H5          25.0802    16.8538     6.1075 H            1 STL601   0.0000
    23 H6          24.4322    17.2711     3.9108 H            1 STL601   0.0000
    24 H7          22.7655    17.3680     2.2045 H            1 STL601   0.0000
    25 H8          19.9082    16.1168     4.9271 H            1 STL601   0.0000
    26 H9          21.5828    16.0011     6.6311 H            1 STL601   0.0000
    27 H10         20.5146    17.1042     1.5177 H            1 STL601   0.0000
    28 H11         24.5788    15.0800    12.5488 H            1 STL601   0.0000
    29 H12         28.6038    17.4644     8.0677 H            1 STL601   0.0000
@<TRIPOS>BOND
     1    1    2      ar
     2    1    6      ar
     3    1   17       1
     4    2    3      ar
     5    3    4      ar
     6    3   16       1
     7    4    5      ar
     8    5    6      ar
     9    5    7       1
    10    7    8       2
    11    8    9       1
    12    9   10      ar
    13    9   14      ar
    14   10   11      ar
    15   11   12      ar
    16   12   13      ar
    17   12   15       1
    18   13   14      ar
    19    2   18       1
    20    4   19       1
    21    6   20       1
    22    7   21       1
    23    8   22       1
    24   10   23       1
    25   11   24       1
    26   13   25       1
    27   14   26       1
    28   15   27       1
    29   16   28       1
    30   17   29       1
@<TRIPOS>SUBSTRUCTURE
     1 STL601      1 GROUP             4 A     STL     0 **** STL A 601
