@<TRIPOS>MOLECULE
3sn6_P0G_1_ligand
   54    56     1     0     0
SMALL
USER_CHARGES


@<TRIPOS>ATOM
     1 CAA         23.9740     7.0940   -14.7090 C.3          1 P0G1601   0.0000
     2 CAB         22.2670     5.6660   -12.3670 C.3          1 P0G1601   0.0000
     3 CAC         20.4550     7.3650   -12.2040 C.3          1 P0G1601   0.0000
     4 OAD         15.4730     2.1740   -10.5770 O.2          1 P0G1601   0.0000
     5 OAE         17.8500     1.5120    -6.6000 O.3          1 P0G1601   0.0000
     6 OAF         20.2190     7.0960    -8.0220 O.3          1 P0G1601   0.0000
     7 CAG         21.9300    10.0400   -15.9090 C.ar         1 P0G1601   0.0000
     8 CAH         21.4030    10.5230   -14.7180 C.ar         1 P0G1601   0.0000
     9 CAI         22.7620     8.9280   -15.8960 C.ar         1 P0G1601   0.0000
    10 CAJ         21.7130     9.8930   -13.5190 C.ar         1 P0G1601   0.0000
    11 CAK         19.2370     3.4470    -6.4570 C.ar         1 P0G1601   0.0000
    12 CAL         19.7840     4.5780    -7.0530 C.ar         1 P0G1601   0.0000
    13 CAM         16.9780     3.9920   -10.8130 C.3          1 P0G1601   0.0000
    14 CAN         21.4120     5.7570    -9.6190 C.3          1 P0G1601   0.0000
    15 CAO         22.8700     8.1030   -12.1880 C.3          1 P0G1601   0.0000
    16 NAP         21.9400     6.9080   -10.3300 N.4          1 P0G1601   1.0000
    17 NAQ         17.2690     2.1530    -9.2380 N.am         1 P0G1601   0.0000
    18 OAR         18.3010     4.3030   -10.3830 O.3          1 P0G1601   0.0000
    19 CAS         16.5110     2.6910   -10.1950 C.2          1 P0G1601   0.0000
    20 CAT         23.0690     8.2970   -14.6960 C.ar         1 P0G1601   0.0000
    21 CAU         18.3860     2.6210    -7.1820 C.ar         1 P0G1601   0.0000
    22 CAV         22.5390     8.7730   -13.5060 C.ar         1 P0G1601   0.0000
    23 CAW         19.4830     4.8770    -8.3760 C.ar         1 P0G1601   0.0000
    24 CAX         18.0860     2.9320    -8.4960 C.ar         1 P0G1601   0.0000
    25 CAY         18.6280     4.0530    -9.0820 C.ar         1 P0G1601   0.0000
    26 CAZ         20.0500     6.0820    -9.0180 C.3          1 P0G1601   0.0000
    27 CBA         21.8760     7.0150   -11.7780 C.3          1 P0G1601   0.0000
    28 HAA1        24.0960     6.7586   -13.7749 H            1 P0G1601   0.0000
    29 HAA2        23.5646     6.3749   -15.2706 H            1 P0G1601   0.0000
    30 HAA3        24.8625     7.3494   -15.0902 H            1 P0G1601   0.0000
    31 HAB1        23.1994     5.4376   -12.0868 H            1 P0G1601   0.0000
    32 HAB2        21.6377     4.9628   -12.0361 H            1 P0G1601   0.0000
    33 HAB3        22.2206     5.7119   -13.3649 H            1 P0G1601   0.0000
    34 HAC1        20.1995     8.2508   -11.8167 H            1 P0G1601   0.0000
    35 HAC2        20.4080     7.4115   -13.2018 H            1 P0G1601   0.0000
    36 HAC3        19.8252     6.6623   -11.8730 H            1 P0G1601   0.0000
    37 HAE         17.2380     0.9190    -7.1232 H            1 P0G1601   0.0000
    38 HAF         21.1264     7.0111    -7.6105 H            1 P0G1601   0.0000
    39 HAG         21.7109    10.4919   -16.7737 H            1 P0G1601   0.0000
    40 HAH         20.8020    11.3222   -14.7235 H            1 P0G1601   0.0000
    41 HAI         23.1417     8.5799   -16.7532 H            1 P0G1601   0.0000
    42 HAJ         21.3406    10.2463   -12.6608 H            1 P0G1601   0.0000
    43 HAK         19.4560     3.2278    -5.5062 H            1 P0G1601   0.0000
    44 HAL         20.3928     5.1749    -6.5304 H            1 P0G1601   0.0000
    45 HAM1        16.9677     3.9054   -11.8092 H            1 P0G1601   0.0000
    46 HAM2        16.3605     4.7281   -10.5360 H            1 P0G1601   0.0000
    47 HAN1        22.0437     5.5044    -8.8861 H            1 P0G1601   0.0000
    48 HAN2        21.3170     4.9917   -10.2556 H            1 P0G1601   0.0000
    49 HAO1        22.8830     8.8028   -11.4738 H            1 P0G1601   0.0000
    50 HAO2        23.7767     7.6882   -12.2648 H            1 P0G1601   0.0000
    51 HAP1        22.9084     6.9666   -10.0876 H            1 P0G1601   0.0000
    52 HAQ         17.2322     1.1681    -9.0691 H            1 P0G1601   0.0000
    53 HAZ         19.4322     6.4083    -9.7334 H            1 P0G1601   0.0000
    54 HAP2        21.4571     7.7057    -9.9688 H            1 P0G1601   0.0000
@<TRIPOS>BOND
     1    1   20       1
     2    2   27       1
     3    3   27       1
     4    4   19       2
     5    5   21       1
     6    6   26       1
     7    7    8      ar
     8    7    9      ar
     9    8   10      ar
    10    9   20      ar
    11   10   22      ar
    12   11   12      ar
    13   11   21      ar
    14   12   23      ar
    15   13   18       1
    16   13   19       1
    17   14   16       1
    18   14   26       1
    19   15   22       1
    20   15   27       1
    21   16   27       1
    22   17   19      am
    23   17   24       1
    24   18   25       1
    25   20   22      ar
    26   21   24      ar
    27   23   25      ar
    28   23   26       1
    29   24   25      ar
    30    1   28       1
    31    1   29       1
    32    1   30       1
    33    2   31       1
    34    2   32       1
    35    2   33       1
    36    3   34       1
    37    3   35       1
    38    3   36       1
    39    5   37       1
    40    6   38       1
    41    7   39       1
    42    8   40       1
    43    9   41       1
    44   10   42       1
    45   11   43       1
    46   12   44       1
    47   13   45       1
    48   13   46       1
    49   14   47       1
    50   14   48       1
    51   15   49       1
    52   15   50       1
    53   16   51       1
    54   17   52       1
    55   26   53       1
    56   16   54       1
@<TRIPOS>SUBSTRUCTURE
     1 P0G1601     1 GROUP             4 R     P0G     0 **** P0G R1601
