@<TRIPOS>MOLECULE
2w9g_TOP_1_ligand
   40    41     1     0     0
SMALL
NO_CHARGES


@<TRIPOS>ATOM
     1 C1          -5.8780   -29.7900     5.4700 C.ar         1 TOP1159   0.0000
     2 N2          -6.6980   -28.7140     5.3510 N.ar         1 TOP1159   1.0000
     3 C3          -6.4500   -27.7660     4.4440 C.ar         1 TOP1159   0.0000
     4 N4          -7.2660   -26.7250     4.3430 N.pl3        1 TOP1159   0.0000
     5 N5          -5.3920   -27.8310     3.6170 N.ar         1 TOP1159   0.0000
     6 C6          -4.5300   -28.8490     3.7030 C.ar         1 TOP1159   0.0000
     7 N7          -3.4370   -28.9090     2.9410 N.pl3        1 TOP1159   0.0000
     8 C8          -4.7890   -29.9350     4.6620 C.ar         1 TOP1159   0.0000
     9 C9          -3.7750   -31.0900     4.7070 C.3          1 TOP1159   0.0000
    10 C10         -4.1920   -32.2450     5.6080 C.ar         1 TOP1159   0.0000
    11 C11         -3.4200   -32.5650     6.7220 C.ar         1 TOP1159   0.0000
    12 C12         -3.8260   -33.6440     7.5400 C.ar         1 TOP1159   0.0000
    13 O13         -3.1260   -33.9790     8.6820 O.3          1 TOP1159   0.0000
    14 C14         -1.8780   -33.3220     8.9770 C.3          1 TOP1159   0.0000
    15 C15         -4.9360   -34.4120     7.2030 C.ar         1 TOP1159   0.0000
    16 O16         -5.3160   -35.4490     8.0350 O.3          1 TOP1159   0.0000
    17 C17         -6.3650   -35.2030     8.9210 C.3          1 TOP1159   0.0000
    18 C18         -5.6890   -34.1020     6.0780 C.ar         1 TOP1159   0.0000
    19 O19         -6.8150   -34.8410     5.7510 O.3          1 TOP1159   0.0000
    20 C20         -7.2090   -34.8510     4.3660 C.3          1 TOP1159   0.0000
    21 C21         -5.3040   -33.0200     5.2740 C.ar         1 TOP1159   0.0000
    22 H1          -6.0756   -30.4861     6.1602 H            1 TOP1159   0.0000
    23 H2          -7.0853   -26.0119     3.6656 H            1 TOP1159   0.0000
    24 H3          -8.0618   -26.6533     4.9443 H            1 TOP1159   0.0000
    25 H4          -2.8095   -29.6829     3.0268 H            1 TOP1159   0.0000
    26 H5          -3.2450   -28.1801     2.2838 H            1 TOP1159   0.0000
    27 H6          -2.9032   -30.7304     5.0397 H            1 TOP1159   0.0000
    28 H7          -3.6578   -31.4420     3.7784 H            1 TOP1159   0.0000
    29 H8          -2.5955   -32.0423     6.9388 H            1 TOP1159   0.0000
    30 H9          -1.5069   -33.6805     9.8336 H            1 TOP1159   0.0000
    31 H10         -1.2287   -33.4915     8.2356 H            1 TOP1159   0.0000
    32 H11         -2.0323   -32.3380     9.0665 H            1 TOP1159   0.0000
    33 H12         -6.5430   -36.0243     9.4630 H            1 TOP1159   0.0000
    34 H13         -6.1174   -34.4491     9.5296 H            1 TOP1159   0.0000
    35 H14         -7.1865   -34.9593     8.4055 H            1 TOP1159   0.0000
    36 H15         -8.0283   -35.4138     4.2566 H            1 TOP1159   0.0000
    37 H16         -7.4043   -33.9166     4.0683 H            1 TOP1159   0.0000
    38 H17         -6.4680   -35.2296     3.8114 H            1 TOP1159   0.0000
    39 H18         -5.8313   -32.8012     4.4530 H            1 TOP1159   0.0000
    40 H19         -7.4955   -28.6309     5.9486 H            1 TOP1159   0.0000
@<TRIPOS>BOND
     1    1    2      ar
     2    1    8      ar
     3    2    3      ar
     4    3    4       1
     5    3    5      ar
     6    5    6      ar
     7    6    7       1
     8    6    8      ar
     9    8    9       1
    10    9   10       1
    11   10   11      ar
    12   10   21      ar
    13   11   12      ar
    14   12   13       1
    15   12   15      ar
    16   13   14       1
    17   15   16       1
    18   15   18      ar
    19   16   17       1
    20   18   19       1
    21   18   21      ar
    22   19   20       1
    23    1   22       1
    24    4   23       1
    25    4   24       1
    26    7   25       1
    27    7   26       1
    28    9   27       1
    29    9   28       1
    30   11   29       1
    31   14   30       1
    32   14   31       1
    33   14   32       1
    34   17   33       1
    35   17   34       1
    36   17   35       1
    37   20   36       1
    38   20   37       1
    39   20   38       1
    40   21   39       1
    41    2   40       1
@<TRIPOS>SUBSTRUCTURE
     1 TOP1159     1 GROUP             4 A     TOP     0 **** TOP A1159
