@<TRIPOS>MOLECULE
2wvj_TTP_2_ligand
   42    43     1     0     0
SMALL
NO_CHARGES


@<TRIPOS>ATOM
     1 PA           2.4440   -18.1250    20.0850 P.3          1 TTP1193   0.0000
     2 O1A          2.7150   -19.6080    20.2360 O.co2        1 TTP1193   0.0000
     3 O2A          1.4070   -17.6430    21.0620 O.co2        1 TTP1193  -1.0000
     4 O3A          3.8030   -17.2560    20.1440 O.3          1 TTP1193   0.0000
     5 PB           4.6700   -16.9560    21.4710 P.3          1 TTP1193   0.0000
     6 O1B          5.8330   -17.9060    21.5300 O.co2        1 TTP1193   0.0000
     7 O2B          5.1460   -15.5240    21.4780 O.co2        1 TTP1193  -1.0000
     8 O3B          3.6670   -17.2090    22.7200 O.3          1 TTP1193   0.0000
     9 PG           3.6280   -16.2990    24.0570 P.3          1 TTP1193   0.0000
    10 O1G          4.9840   -16.2920    24.6990 O.co2        1 TTP1193   0.0000
    11 O2G          2.6150   -16.8860    25.0030 O.co2        1 TTP1193  -1.0000
    12 O3G          3.2480   -14.8810    23.7380 O.co2        1 TTP1193  -1.0000
    13 O5'          1.8980   -17.8630    18.5990 O.3          1 TTP1193   0.0000
    14 C5'          1.6410   -16.5540    18.1140 C.3          1 TTP1193   0.0000
    15 C4'          1.5350   -16.6300    16.5970 C.3          1 TTP1193   0.0000
    16 O4'          0.5740   -17.6150    16.1910 O.3          1 TTP1193   0.0000
    17 C3'          1.0670   -15.3000    16.0340 C.3          1 TTP1193   0.0000
    18 O3'          1.9590   -14.9430    14.9790 O.3          1 TTP1193   0.0000
    19 C2'         -0.3230   -15.5610    15.4810 C.3          1 TTP1193   0.0000
    20 C1'         -0.2810   -17.0550    15.1880 C.3          1 TTP1193   0.0000
    21 N1          -1.5820   -17.7270    15.1150 N.pl3        1 TTP1193   0.0000
    22 C2          -1.9830   -18.2980    13.8680 C.2          1 TTP1193   0.0000
    23 O2          -1.2400   -18.2070    12.8610 O.2          1 TTP1193   0.0000
    24 N3          -3.1540   -18.9490    13.7410 N.pl3        1 TTP1193   0.0000
    25 C4          -3.9880   -19.0780    14.7830 C.2          1 TTP1193   0.0000
    26 O4          -5.0700   -19.6900    14.6410 O.2          1 TTP1193   0.0000
    27 C5          -3.5980   -18.4960    16.1010 C.2          1 TTP1193   0.0000
    28 C5M         -4.5020   -18.6180    17.3090 C.3          1 TTP1193   0.0000
    29 C6          -2.3750   -17.8360    16.1980 C.2          1 TTP1193   0.0000
    30 H5'1         2.3893   -15.9429    18.3722 H            1 TTP1193   0.0000
    31 H5'2         0.7834   -16.2116    18.4979 H            1 TTP1193   0.0000
    32 H4'          2.4291   -16.8585    16.2118 H            1 TTP1193   0.0000
    33 H3'          1.0466   -14.5952    16.7431 H            1 TTP1193   0.0000
    34 H5           2.8877   -14.8619    15.3408 H            1 TTP1193   0.0000
    35 H2'1        -0.4861   -15.0330    14.6476 H            1 TTP1193   0.0000
    36 H2'2        -1.0279   -15.3441    16.1563 H            1 TTP1193   0.0000
    37 H1'          0.1711   -17.1764    14.3043 H            1 TTP1193   0.0000
    38 H9          -3.4058   -19.3422    12.8567 H            1 TTP1193   0.0000
    39 H5M1        -4.0730   -18.1694    18.0930 H            1 TTP1193   0.0000
    40 H5M2        -5.3799   -18.1806    17.1139 H            1 TTP1193   0.0000
    41 H5M3        -4.6504   -19.5846    17.5181 H            1 TTP1193   0.0000
    42 H13         -2.0862   -17.4435    17.0712 H            1 TTP1193   0.0000
@<TRIPOS>BOND
     1    1    2      ar
     2    1    3      ar
     3    1    4       1
     4    1   13       1
     5    4    5       1
     6    5    6      ar
     7    5    7      ar
     8    5    8       1
     9    8    9       1
    10    9   10      ar
    11    9   11      ar
    12    9   12      ar
    13   13   14       1
    14   14   15       1
    15   15   16       1
    16   15   17       1
    17   16   20       1
    18   17   18       1
    19   17   19       1
    20   19   20       1
    21   20   21       1
    22   21   22       1
    23   21   29       1
    24   22   23       2
    25   22   24       1
    26   24   25       1
    27   25   26       2
    28   25   27       1
    29   27   28       1
    30   27   29       2
    31   29   42       1
    32   28   41       1
    33   28   40       1
    34   28   39       1
    35   14   30       1
    36   14   31       1
    37   15   32       1
    38   17   33       1
    39   18   34       1
    40   19   35       1
    41   19   36       1
    42   20   37       1
    43   24   38       1
@<TRIPOS>SUBSTRUCTURE
     1 TTP1193     1 GROUP             4 B     TTP     0 **** TTP B1193
