@<TRIPOS>MOLECULE
1tz8_DES_1_ligand
   40    41     1     0     0
SMALL
NO_CHARGES


@<TRIPOS>ATOM
     1 CP9         15.8960    63.5110    37.0920 C.3          1 DES128   0.0000
     2 CP8         15.5990    62.2330    36.3390 C.3          1 DES128   0.0000
     3 CP7         16.7550    61.8740    35.4350 C.2          1 DES128   0.0000
     4 CP6         18.1270    61.7880    36.0280 C.ar         1 DES128   0.0000
     5 CP1         18.5620    60.5690    36.5240 C.ar         1 DES128   0.0000
     6 CP2         19.8120    60.4670    37.1070 C.ar         1 DES128   0.0000
     7 CP3         20.6290    61.5750    37.1920 C.ar         1 DES128   0.0000
     8 OP3         21.8580    61.4390    37.7810 O.3          1 DES128   0.0000
     9 CP4         20.1980    62.8080    36.7100 C.ar         1 DES128   0.0000
    10 CP5         18.9360    62.9190    36.1260 C.ar         1 DES128   0.0000
    11 C7          16.5290    61.6470    34.1530 C.2          1 DES128   0.0000
    12 C6          15.1150    61.7390    33.6570 C.ar         1 DES128   0.0000
    13 C5          14.7630    62.4820    32.5310 C.ar         1 DES128   0.0000
    14 C4          13.4230    62.5160    32.1200 C.ar         1 DES128   0.0000
    15 C3          12.4470    61.8160    32.8340 C.ar         1 DES128   0.0000
    16 O3          11.1180    61.8350    32.4560 O.3          1 DES128   0.0000
    17 C2          12.8100    61.0840    33.9530 C.ar         1 DES128   0.0000
    18 C1          14.1380    61.0480    34.3610 C.ar         1 DES128   0.0000
    19 C8          17.6740    61.2560    33.2420 C.3          1 DES128   0.0000
    20 C9          17.8200    59.7470    33.3270 C.3          1 DES128   0.0000
    21 HP91        15.1230    63.7356    37.6854 H            1 DES128   0.0000
    22 HP92        16.7179    63.3870    37.6479 H            1 DES128   0.0000
    23 HP93        16.0434    64.2552    36.4405 H            1 DES128   0.0000
    24 HP81        14.7754    62.3600    35.7862 H            1 DES128   0.0000
    25 HP82        15.4500    61.4918    36.9936 H            1 DES128   0.0000
    26 HP1         17.9724    59.7638    36.4604 H            1 DES128   0.0000
    27 HP2         20.1241    59.5881    37.4677 H            1 DES128   0.0000
    28 HP3         22.4676    62.2284    37.8540 H            1 DES128   0.0000
    29 HP4         20.7904    63.6104    36.7821 H            1 DES128   0.0000
    30 HP5         18.6149    63.8010    35.7811 H            1 DES128   0.0000
    31 H11         15.4600    62.9861    32.0211 H            1 DES128   0.0000
    32 H12         13.1643    63.0442    31.3113 H            1 DES128   0.0000
    33 H13         10.8340    62.3590    31.6530 H            1 DES128   0.0000
    34 H14         12.1156    60.5810    34.4676 H            1 DES128   0.0000
    35 H15         14.3926    60.5187    35.1703 H            1 DES128   0.0000
    36 H16         18.5182    61.6994    33.5431 H            1 DES128   0.0000
    37 H17         17.4717    61.5282    32.3013 H            1 DES128   0.0000
    38 H18         18.5701    59.4509    32.7357 H            1 DES128   0.0000
    39 H19         18.0163    59.4838    34.2716 H            1 DES128   0.0000
    40 H20         16.9698    59.3126    33.0297 H            1 DES128   0.0000
@<TRIPOS>BOND
     1    1    2       1
     2    2    3       1
     3    3    4       1
     4    3   11       2
     5    4    5      ar
     6    4   10      ar
     7    5    6      ar
     8    6    7      ar
     9    7    8       1
    10    7    9      ar
    11    9   10      ar
    12   11   12       1
    13   11   19       1
    14   12   13      ar
    15   12   18      ar
    16   13   14      ar
    17   14   15      ar
    18   15   16       1
    19   15   17      ar
    20   17   18      ar
    21   19   20       1
    22    1   21       1
    23    1   22       1
    24    1   23       1
    25    2   24       1
    26    2   25       1
    27    5   26       1
    28    6   27       1
    29    8   28       1
    30    9   29       1
    31   10   30       1
    32   13   31       1
    33   14   32       1
    34   16   33       1
    35   17   34       1
    36   18   35       1
    37   19   36       1
    38   19   37       1
    39   20   38       1
    40   20   39       1
    41   20   40       1
@<TRIPOS>SUBSTRUCTURE
     1 DES128      1 GROUP             4 B     DES     0 **** DES B 128
