@<TRIPOS>MOLECULE
3s7d_LEU_SER_LYS_LYS_MLZ_1_ligand
  102   101     5     0     0
SMALL
NO_CHARGES


@<TRIPOS>ATOM
     1 N          -15.5390   -54.9560   -26.8390 N.4          1 LEU369   1.0000
     2 CA         -15.0890   -54.1180   -25.7320 C.3          1 LEU369   0.0000
     3 C          -16.2330   -53.2410   -25.1200 C.2          1 LEU369   0.0000
     4 O          -17.2100   -52.9150   -25.8070 O.2          1 LEU369   0.0000
     5 CB         -13.8060   -53.3080   -26.1060 C.3          1 LEU369   0.0000
     6 CG         -12.4920   -54.0880   -26.5870 C.3          1 LEU369   0.0000
     7 CD1        -11.2410   -53.2100   -26.4980 C.3          1 LEU369   0.0000
     8 CD2        -12.2320   -55.4320   -25.8190 C.3          1 LEU369   0.0000
     9 H1         -16.3592   -55.4582   -26.5649 H            1 LEU369   0.0000
    10 H2         -15.7492   -54.3801   -27.6290 H            1 LEU369   0.0000
    11 HA         -14.8117   -54.7490   -25.0074 H            1 LEU369   0.0000
    12 HB1        -13.5502   -52.7788   -25.2970 H            1 LEU369   0.0000
    13 HB2        -14.0610   -52.6846   -26.8452 H            1 LEU369   0.0000
    14 HG         -12.6223   -54.3193   -27.5511 H            1 LEU369   0.0000
    15 HD11       -10.4452   -53.7315   -26.8059 H            1 LEU369   0.0000
    16 HD12       -11.3570   -52.4046   -27.0793 H            1 LEU369   0.0000
    17 HD13       -11.1037   -52.9205   -25.5507 H            1 LEU369   0.0000
    18 HD21       -11.4000   -55.8612   -26.1705 H            1 LEU369   0.0000
    19 HD22       -12.1227   -55.2426   -24.8432 H            1 LEU369   0.0000
    20 HD23       -13.0077   -56.0485   -25.9540 H            1 LEU369   0.0000
    21 N          -16.1420   -52.9580   -23.8000 N.am         2 MLZ370   0.0000
    22 CA         -17.1260   -52.1970   -23.0210 C.3          2 MLZ370   0.0000
    23 CB         -16.6360   -52.1200   -21.5460 C.3          2 MLZ370   0.0000
    24 CG         -16.6110   -53.4370   -20.7010 C.3          2 MLZ370   0.0000
    25 CD         -15.9820   -53.1320   -19.2970 C.3          2 MLZ370   0.0000
    26 CE         -15.6460   -54.4410   -18.5950 C.3          2 MLZ370   0.0000
    27 NZ         -14.6960   -54.4580   -17.4730 N.4          2 MLZ370   1.0000
    28 CM         -14.9630   -53.2580   -16.7290 C.3          2 MLZ370   0.0000
    29 C          -17.3650   -50.8330   -23.6680 C.2          2 MLZ370   0.0000
    30 O          -16.4420   -50.0170   -23.7640 O.2          2 MLZ370   0.0000
    31 H13        -17.9891   -52.7018   -23.0347 H            2 MLZ370   0.0000
    32 H14        -17.2325   -51.4742   -21.0695 H            2 MLZ370   0.0000
    33 H15        -15.7026   -51.7616   -21.5628 H            2 MLZ370   0.0000
    34 HG1        -16.0611   -54.1269   -21.1718 H            2 MLZ370   0.0000
    35 HG2        -17.5439   -53.7775   -20.5835 H            2 MLZ370   0.0000
    36 HD1        -16.6359   -52.6157   -18.7440 H            2 MLZ370   0.0000
    37 HD2        -15.1476   -52.5938   -19.4156 H            2 MLZ370   0.0000
    38 HE1        -15.2776   -55.0551   -19.2929 H            2 MLZ370   0.0000
    39 HE2        -16.5079   -54.8103   -18.2475 H            2 MLZ370   0.0000
    40 HZ1        -13.7550   -54.4579   -17.8113 H            2 MLZ370   0.0000
    41 HM1        -14.3449   -53.2077   -15.9445 H            2 MLZ370   0.0000
    42 HM2        -14.8202   -52.4622   -17.3175 H            2 MLZ370   0.0000
    43 HM3        -15.9097   -53.2690   -16.4072 H            2 MLZ370   0.0000
    44 H26        -15.3360   -53.2960   -23.3140 H            2 MLZ370   0.0000
    45 N          -18.5870   -50.6380   -24.2010 N.am         3 SER371   0.0000
    46 CA         -19.0020   -49.4340   -24.9550 C.3          3 SER371   0.0000
    47 C          -20.4920   -49.0620   -24.8170 C.2          3 SER371   0.0000
    48 O          -21.2370   -49.7130   -24.0850 O.2          3 SER371   0.0000
    49 CB         -18.6670   -49.6090   -26.4410 C.3          3 SER371   0.0000
    50 OG         -19.2920   -50.7460   -27.0210 O.3          3 SER371   0.0000
    51 H27        -18.4650   -48.6630   -24.6128 H            3 SER371   0.0000
    52 H28        -17.6763   -49.7074   -26.5349 H            3 SER371   0.0000
    53 H29        -18.9691   -48.7931   -26.9340 H            3 SER371   0.0000
    54 H30        -18.6922   -51.5405   -26.9266 H            3 SER371   0.0000
    55 H31        -19.2655   -51.3622   -24.0777 H            3 SER371   0.0000
    56 N          -20.9240   -48.0130   -25.5610 N.am         4 LYS372   0.0000
    57 CA         -22.3200   -47.5540   -25.5830 C.3          4 LYS372   0.0000
    58 C          -23.1030   -48.1390   -26.7520 C.2          4 LYS372   0.0000
    59 O          -24.1330   -48.7570   -26.5250 O.2          4 LYS372   0.0000
    60 CB         -22.4010   -46.0200   -25.5650 C.3          4 LYS372   0.0000
    61 CG         -22.7760   -45.4830   -24.2120 C.3          4 LYS372   0.0000
    62 CD         -21.5740   -45.5280   -23.2930 C.3          4 LYS372   0.0000
    63 CE         -21.9370   -45.4060   -21.8480 C.3          4 LYS372   0.0000
    64 NZ         -20.8250   -44.7720   -21.1250 N.4          4 LYS372   1.0000
    65 H32        -20.2568   -47.5260   -26.1246 H            4 LYS372   0.0000
    66 H33        -22.7525   -47.8827   -24.7434 H            4 LYS372   0.0000
    67 H34        -23.0888   -45.7267   -26.2290 H            4 LYS372   0.0000
    68 H35        -21.5092   -45.6481   -25.8225 H            4 LYS372   0.0000
    69 H36        -23.5108   -46.0403   -23.8254 H            4 LYS372   0.0000
    70 H37        -23.0881   -44.5375   -24.3047 H            4 LYS372   0.0000
    71 H38        -20.9618   -44.7743   -23.5323 H            4 LYS372   0.0000
    72 H39        -21.1008   -46.3982   -23.4301 H            4 LYS372   0.0000
    73 H40        -22.1087   -46.3149   -21.4679 H            4 LYS372   0.0000
    74 H41        -22.7597   -44.8451   -21.7555 H            4 LYS372   0.0000
    75 H42        -21.0618   -44.6875   -20.1571 H            4 LYS372   0.0000
    76 HZ2        -20.0029   -45.3335   -21.2192 H            4 LYS372   0.0000
    77 HZ3        -20.6539   -43.8638   -21.5068 H            4 LYS372   0.0000
    78 N          -22.6000   -47.9390   -27.9960 N.am         5 LYS373   0.0000
    79 CA         -23.1680   -48.4090   -29.2620 C.3          5 LYS373   0.0000
    80 C          -22.8460   -49.9010   -29.4720 C.2          5 LYS373   0.0000
    81 O          -21.6930   -50.3200   -29.3510 O.2          5 LYS373   0.0000
    82 CB         -22.5990   -47.5490   -30.4100 C.3          5 LYS373   0.0000
    83 CG         -23.1980   -47.7860   -31.7890 C.3          5 LYS373   0.0000
    84 CD         -22.5770   -46.8150   -32.7800 C.3          5 LYS373   0.0000
    85 CE         -22.7020   -47.2700   -34.2100 C.3          5 LYS373   0.0000
    86 NZ         -22.2220   -46.2200   -35.1470 N.4          5 LYS373   1.0000
    87 H45        -21.7506   -47.4146   -28.0551 H            5 LYS373   0.0000
    88 H46        -24.1609   -48.2936   -29.2333 H            5 LYS373   0.0000
    89 H47        -23.5806   -50.5367   -29.7091 H            5 LYS373   0.0000
    90 H48        -21.6173   -47.7299   -30.4688 H            5 LYS373   0.0000
    91 H49        -22.7474   -46.5886   -30.1740 H            5 LYS373   0.0000
    92 H50        -24.1867   -47.6402   -31.7533 H            5 LYS373   0.0000
    93 H51        -23.0097   -48.7246   -32.0782 H            5 LYS373   0.0000
    94 H52        -21.6063   -46.7147   -32.5616 H            5 LYS373   0.0000
    95 H53        -23.0329   -45.9299   -32.6866 H            5 LYS373   0.0000
    96 H54        -23.6618   -47.4700   -34.4068 H            5 LYS373   0.0000
    97 H55        -22.1558   -48.0977   -34.3388 H            5 LYS373   0.0000
    98 H56        -22.3150   -46.5452   -36.0881 H            5 LYS373   0.0000
    99 H57        -22.7671   -45.3905   -35.0256 H            5 LYS373   0.0000
   100 H58        -21.2611   -46.0182   -34.9575 H            5 LYS373   0.0000
   101 H59        -14.8169   -55.6039   -27.0815 H            5 LYS373   0.0000
   102 H60        -14.8445   -55.2647   -16.9010 H            5 LYS373   0.0000
@<TRIPOS>BOND
     1    1    2       1
     2    2    5       1
     3    2    3       1
     4    5    6       1
     5    6    7       1
     6    6    8       1
     7    3    4       2
     8    1    9       1
     9    1   10       1
    10    2   11       1
    11   50   54       1
    12    5   12       1
    13    5   13       1
    14    6   14       1
    15    7   15       1
    16    7   16       1
    17    7   17       1
    18    8   18       1
    19    8   19       1
    20    8   20       1
    21    3   21      am
    22   21   22       1
    23   22   23       1
    24   22   29       1
    25   23   24       1
    26   24   25       1
    27   25   26       1
    28   26   27       1
    29   27   28       1
    30   29   30       2
    31   28   43       1
    32   28   42       1
    33   22   31       1
    34   23   32       1
    35   23   33       1
    36   24   34       1
    37   24   35       1
    38   25   36       1
    39   25   37       1
    40   26   38       1
    41   26   39       1
    42   27   40       1
    43   28   41       1
    44   21   44       1
    45   29   45      am
    46   45   46       1
    47   46   49       1
    48   46   47       1
    49   49   50       1
    50   47   48       2
    51   49   53       1
    52   49   52       1
    53   46   51       1
    54   47   56      am
    55   45   55       1
    56   56   57       1
    57   57   60       1
    58   57   58       1
    59   60   61       1
    60   61   62       1
    61   62   63       1
    62   63   64       1
    63   58   59       2
    64   64   77       1
    65   56   65       1
    66   57   66       1
    67   58   78      am
    68   60   67       1
    69   60   68       1
    70   61   69       1
    71   61   70       1
    72   62   71       1
    73   62   72       1
    74   63   73       1
    75   63   74       1
    76   64   75       1
    77   64   76       1
    78   78   79       1
    79   79   82       1
    80   79   80       1
    81   82   83       1
    82   83   84       1
    83   84   85       1
    84   85   86       1
    85   80   81       2
    86   86  100       1
    87   78   87       1
    88   79   88       1
    89   80   89       1
    90   82   90       1
    91   82   91       1
    92   83   92       1
    93   83   93       1
    94   84   94       1
    95   84   95       1
    96   85   96       1
    97   85   97       1
    98   86   98       1
    99   86   99       1
   100    1  101       1
   101   27  102       1
@<TRIPOS>SUBSTRUCTURE
     1 LEU369      1 RESIDUE           4 I     LEU     0 **** LEU I 369
     2 MLZ370     21 GROUP             4 I     MLZ     0 **** MLZ I 370
     3 SER371     45 RESIDUE           4 I     SER     0 **** SER I 371
     4 LYS372     56 RESIDUE           4 I     LYS     0 **** LYS I 372
     5 LYS373     78 RESIDUE           4 I     LYS     0 **** LYS I 373
