@<TRIPOS>MOLECULE
3rw9_DSH_1_ligand
   41    43     1     0     0
SMALL
NO_CHARGES


@<TRIPOS>ATOM
     1 N            0.7430    58.8340     8.7880 N.pl3        1 DSH303   0.0000
     2 N1           1.4960    71.2080     7.8460 N.ar         1 DSH303   0.0000
     3 C2           0.9260    70.2580     7.0900 C.ar         1 DSH303   0.0000
     4 N3           1.4700    69.0360     6.9730 N.ar         1 DSH303   0.0000
     5 C4           2.6110    68.7320     7.6310 C.ar         1 DSH303   0.0000
     6 C5           3.2100    69.6980     8.4270 C.ar         1 DSH303   0.0000
     7 C6           2.6350    70.9550     8.5260 C.ar         1 DSH303   0.0000
     8 N6           3.2020    71.9160     9.2960 N.pl3        1 DSH303   0.0000
     9 N7           4.3120    69.1410     8.9630 N.2          1 DSH303   0.0000
    10 C8           4.3920    67.8730     8.5100 C.2          1 DSH303   0.0000
    11 N9           3.3610    67.6280     7.6950 N.pl3        1 DSH303   0.0000
    12 CA           1.6660    58.7760     9.7470 C.2          1 DSH303   0.0000
    13 CB           2.4060    59.8390    10.0530 C.2          1 DSH303   0.0000
    14 SD           3.7780    61.6460     8.6530 S.3          1 DSH303   0.0000
    15 CG           2.2250    61.1430     9.3150 C.3          1 DSH303   0.0000
    16 C1'          3.0740    66.3360     7.0050 C.3          1 DSH303   0.0000
    17 C2'          4.3290    65.6810     6.4570 C.3          1 DSH303   0.0000
    18 O2'          4.6130    66.1530     5.1400 O.3          1 DSH303   0.0000
    19 C3'          3.9640    64.2100     6.4460 C.3          1 DSH303   0.0000
    20 O3'          3.2320    63.9230     5.2530 O.3          1 DSH303   0.0000
    21 C4'          2.9980    64.0480     7.6010 C.3          1 DSH303   0.0000
    22 O4'          2.5430    65.3720     7.9270 O.3          1 DSH303   0.0000
    23 C5'          3.6670    63.4040     8.8100 C.3          1 DSH303   0.0000
    24 H1           0.1958    58.0256     8.5711 H            1 DSH303   0.0000
    25 H2           0.5974    59.6860     8.2851 H            1 DSH303   0.0000
    26 H3           0.0774    70.4643     6.6029 H            1 DSH303   0.0000
    27 H4           4.0455    71.7223     9.7970 H            1 DSH303   0.0000
    28 H5           2.7768    72.8186     9.3629 H            1 DSH303   0.0000
    29 H6           5.1101    67.2186     8.7467 H            1 DSH303   0.0000
    30 HA           1.8050    57.9200    10.2449 H            1 DSH303   0.0000
    31 HB           3.0895    59.7730    10.7799 H            1 DSH303   0.0000
    32 HG1          1.8872    61.8415     9.9459 H            1 DSH303   0.0000
    33 HG2          1.5677    61.0193     8.5716 H            1 DSH303   0.0000
    34 H1'          2.4213    66.4878     6.2628 H            1 DSH303   0.0000
    35 H2'          5.1058    65.8460     7.0648 H            1 DSH303   0.0000
    36 H13          3.9168    66.8167     4.8664 H            1 DSH303   0.0000
    37 H3'          4.7677    63.6231     6.5437 H            1 DSH303   0.0000
    38 H15          2.7225    64.7359     4.9708 H            1 DSH303   0.0000
    39 H4'          2.2210    63.4891     7.3114 H            1 DSH303   0.0000
    40 H5'1         4.5896    63.7779     8.9049 H            1 DSH303   0.0000
    41 H5'2         3.1335    63.6215     9.6273 H            1 DSH303   0.0000
@<TRIPOS>BOND
     1    1   12       1
     2    2    3      ar
     3    2    7      ar
     4    3    4      ar
     5    4    5      ar
     6    5    6      ar
     7    5   11       1
     8    6    7      ar
     9    6    9       1
    10    7    8       1
    11    9   10       2
    12   10   11       1
    13   11   16       1
    14   12   13       2
    15   13   15       1
    16   14   15       1
    17   14   23       1
    18   16   17       1
    19   16   22       1
    20   17   18       1
    21   17   19       1
    22   19   20       1
    23   19   21       1
    24   21   22       1
    25   21   23       1
    26    1   24       1
    27    1   25       1
    28    3   26       1
    29    8   27       1
    30    8   28       1
    31   10   29       1
    32   12   30       1
    33   13   31       1
    34   15   32       1
    35   15   33       1
    36   16   34       1
    37   17   35       1
    38   18   36       1
    39   19   37       1
    40   20   38       1
    41   21   39       1
    42   23   40       1
    43   23   41       1
@<TRIPOS>SUBSTRUCTURE
     1 DSH303      1 GROUP             4 A     DSH     0 **** DSH A 303
