@<TRIPOS>MOLECULE
3ka7_FAD_1_ligand
   84    89     1     0     0
SMALL
NO_CHARGES


@<TRIPOS>ATOM
     1 PA          16.2950    -8.5350    29.8210 P.3          1 FAD500   0.0000
     2 O1A         14.9500    -8.0400    29.3580 O.co2        1 FAD500   0.0000
     3 O2A         16.6240    -8.3300    31.2810 O.co2        1 FAD500  -1.0000
     4 O5B         17.4420    -7.8480    28.9330 O.3          1 FAD500   0.0000
     5 C5B         17.1350    -7.3650    27.6310 C.3          1 FAD500   0.0000
     6 C4B         18.3750    -6.5630    27.2240 C.3          1 FAD500   0.0000
     7 O4B         18.2690    -6.0900    25.8960 O.3          1 FAD500   0.0000
     8 C3B         18.5570    -5.3430    28.1310 C.3          1 FAD500   0.0000
     9 O3B         19.8510    -5.3500    28.7140 O.3          1 FAD500   0.0000
    10 C2B         18.3730    -4.1550    27.1840 C.3          1 FAD500   0.0000
    11 O2B         19.1650    -3.0360    27.5350 O.3          1 FAD500   0.0000
    12 C1B         18.7560    -4.7520    25.8350 C.3          1 FAD500   0.0000
    13 N9A         18.1310    -4.1120    24.6700 N.pl3        1 FAD500   0.0000
    14 C8A         16.8300    -3.6860    24.4950 C.2          1 FAD500   0.0000
    15 N7A         16.7070    -3.2160    23.2200 N.2          1 FAD500   0.0000
    16 C5A         17.9150    -3.3480    22.6070 C.ar         1 FAD500   0.0000
    17 C6A         18.3690    -3.0170    21.3390 C.ar         1 FAD500   0.0000
    18 N6A         17.5180    -2.5730    20.4190 N.pl3        1 FAD500   0.0000
    19 N1A         19.6830    -3.2780    21.0070 N.ar         1 FAD500   0.0000
    20 C2A         20.5500    -3.8480    21.9170 C.ar         1 FAD500   0.0000
    21 N3A         20.1000    -4.1710    23.1800 N.ar         1 FAD500   0.0000
    22 C4A         18.8060    -3.9130    23.5030 C.ar         1 FAD500   0.0000
    23 N1          13.6070   -13.3280    38.4650 N.2          1 FAD500   0.0000
    24 C2          14.0740   -14.3250    39.3040 C.2          1 FAD500   0.0000
    25 O2          14.4170   -15.4170    38.8310 O.2          1 FAD500   0.0000
    26 N3          14.1250   -14.0940    40.6700 N.pl3        1 FAD500   0.0000
    27 C4          13.7140   -12.8830    41.2000 C.2          1 FAD500   0.0000
    28 O4          13.7570   -12.6710    42.4120 O.2          1 FAD500   0.0000
    29 C4X         13.2400   -11.8850    40.3610 C.2          1 FAD500   0.0000
    30 N5          12.8080   -10.6760    40.8880 N.2          1 FAD500   0.0000
    31 C5X         12.3520    -9.6860    40.0340 C.ar         1 FAD500   0.0000
    32 C6          11.9300    -8.4590    40.5460 C.ar         1 FAD500   0.0000
    33 C7          11.4910    -7.4550    39.6910 C.ar         1 FAD500   0.0000
    34 C7M         11.0370    -6.1400    40.2740 C.3          1 FAD500   0.0000
    35 C8          11.4720    -7.6920    38.3230 C.ar         1 FAD500   0.0000
    36 C8M         10.9970    -6.6370    37.3660 C.3          1 FAD500   0.0000
    37 C9          11.8820    -8.9190    37.8070 C.ar         1 FAD500   0.0000
    38 C9A         12.3310    -9.9190    38.6640 C.ar         1 FAD500   0.0000
    39 N10         12.7410   -11.1430    38.1520 N.pl3        1 FAD500   0.0000
    40 C10         13.2000   -12.1200    38.9920 C.2          1 FAD500   0.0000
    41 C1'         12.6380   -11.4520    36.6950 C.3          1 FAD500   0.0000
    42 C2'         14.0180   -11.2680    36.0520 C.3          1 FAD500   0.0000
    43 O2'         14.5910   -10.0430    36.5010 O.3          1 FAD500   0.0000
    44 C3'         13.8620   -11.2650    34.5340 C.3          1 FAD500   0.0000
    45 O3'         13.0250   -12.3490    34.1480 O.3          1 FAD500   0.0000
    46 C4'         15.1600   -11.3800    33.7400 C.3          1 FAD500   0.0000
    47 O4'         16.1480   -10.4800    34.1990 O.3          1 FAD500   0.0000
    48 C5'         14.8230   -11.0210    32.2970 C.3          1 FAD500   0.0000
    49 O5'         15.9170   -11.4090    31.5030 O.3          1 FAD500   0.0000
    50 P           15.7950   -11.4100    29.9200 P.3          1 FAD500   0.0000
    51 O1P         16.6010   -12.5620    29.3720 O.co2        1 FAD500   0.0000
    52 O2P         14.3530   -11.3610    29.4560 O.co2        1 FAD500  -1.0000
    53 O3P         16.5300   -10.0740    29.4060 O.3          1 FAD500   0.0000
    54 H5B1        16.3251    -6.7789    27.6523 H            1 FAD500   0.0000
    55 H5B2        16.9806    -8.1241    26.9986 H            1 FAD500   0.0000
    56 H4B         19.1820    -7.1489    27.2987 H            1 FAD500   0.0000
    57 H3B         17.8551    -5.3317    28.8432 H            1 FAD500   0.0000
    58 H5          20.5422    -5.3253    27.9917 H            1 FAD500   0.0000
    59 H2B         17.4093    -3.8885    27.1682 H            1 FAD500   0.0000
    60 H7          20.0507    -3.0969    27.0747 H            1 FAD500   0.0000
    61 H1B         19.7506    -4.7542    25.7317 H            1 FAD500   0.0000
    62 H8A         16.1044    -3.7165    25.1824 H            1 FAD500   0.0000
    63 H6A1        17.8484    -2.3351    19.5056 H            1 FAD500   0.0000
    64 H6A2        16.5476    -2.4769    20.6404 H            1 FAD500   0.0000
    65 H2A         21.5003    -4.0260    21.6617 H            1 FAD500   0.0000
    66 H13         14.4628   -14.8109    41.2799 H            1 FAD500   0.0000
    67 H14         11.9434    -8.3009    41.5333 H            1 FAD500   0.0000
    68 H7M1        10.7540    -5.5280    39.5355 H            1 FAD500   0.0000
    69 H7M2        10.2656    -6.2973    40.8906 H            1 FAD500   0.0000
    70 H7M3        11.7904    -5.7229    40.7823 H            1 FAD500   0.0000
    71 H8M1        11.0545    -6.9854    36.4304 H            1 FAD500   0.0000
    72 H8M2        10.0485    -6.3995    37.5756 H            1 FAD500   0.0000
    73 H8M3        11.5717    -5.8234    37.4546 H            1 FAD500   0.0000
    74 H21         11.8537    -9.0813    36.8207 H            1 FAD500   0.0000
    75 H1'1        11.9817   -10.8317    36.2655 H            1 FAD500   0.0000
    76 H1'2        12.3334   -12.3966    36.5725 H            1 FAD500   0.0000
    77 H2'         14.6107   -12.0272    36.3209 H            1 FAD500   0.0000
    78 H25         15.1892    -9.6743    35.7895 H            1 FAD500   0.0000
    79 H3'         13.4098   -10.4132    34.2694 H            1 FAD500   0.0000
    80 H27         12.2188   -11.9952    33.6739 H            1 FAD500   0.0000
    81 H4'         15.5054   -12.3173    33.7860 H            1 FAD500   0.0000
    82 H29         16.7420   -10.2204    33.4376 H            1 FAD500   0.0000
    83 H5'1        14.6735   -10.0356    32.2155 H            1 FAD500   0.0000
    84 H5'2        13.9995   -11.5083    32.0065 H            1 FAD500   0.0000
@<TRIPOS>BOND
     1    1    2      ar
     2    1    3      ar
     3    1    4       1
     4    1   53       1
     5    4    5       1
     6    5    6       1
     7    6    7       1
     8    6    8       1
     9    7   12       1
    10    8    9       1
    11    8   10       1
    12   10   11       1
    13   10   12       1
    14   12   13       1
    15   13   14       1
    16   13   22       1
    17   14   15       2
    18   15   16       1
    19   16   17      ar
    20   16   22      ar
    21   17   18       1
    22   17   19      ar
    23   19   20      ar
    24   20   21      ar
    25   21   22      ar
    26   23   24       1
    27   23   40       2
    28   24   25       2
    29   24   26       1
    30   26   27       1
    31   27   28       2
    32   27   29       1
    33   29   30       2
    34   29   40       1
    35   30   31       1
    36   31   32      ar
    37   31   38      ar
    38   32   33      ar
    39   33   34       1
    40   33   35      ar
    41   35   36       1
    42   35   37      ar
    43   37   38      ar
    44   38   39       1
    45   39   40       1
    46   39   41       1
    47   41   42       1
    48   42   43       1
    49   42   44       1
    50   44   45       1
    51   44   46       1
    52   46   47       1
    53   46   48       1
    54   48   49       1
    55   49   50       1
    56   50   51      ar
    57   50   52      ar
    58   50   53       1
    59   48   84       1
    60    5   54       1
    61    5   55       1
    62    6   56       1
    63    8   57       1
    64    9   58       1
    65   10   59       1
    66   11   60       1
    67   12   61       1
    68   14   62       1
    69   18   63       1
    70   18   64       1
    71   20   65       1
    72   26   66       1
    73   32   67       1
    74   34   68       1
    75   34   69       1
    76   34   70       1
    77   36   71       1
    78   36   72       1
    79   36   73       1
    80   37   74       1
    81   41   75       1
    82   41   76       1
    83   42   77       1
    84   43   78       1
    85   44   79       1
    86   45   80       1
    87   46   81       1
    88   47   82       1
    89   48   83       1
@<TRIPOS>SUBSTRUCTURE
     1 FAD500      1 GROUP             4 A     FAD     0 **** FAD A 500
