@<TRIPOS>MOLECULE
3mau_EXT_4_ligand
   35    35     1     0     0
SMALL
NO_CHARGES


@<TRIPOS>ATOM
     1 CAA         23.0320    29.1350    19.9040 C.2          1 EXT514   0.0000
     2 CAB         21.7090    29.4790    20.1550 C.2          1 EXT514   0.0000
     3 PAC         21.4320    27.2010    23.7040 P.3          1 EXT514   0.0000
     4 OAD         20.3470    28.3960    23.8120 O.co2        1 EXT514   0.0000
     5 OAE         22.3040    27.0520    24.9040 O.co2        1 EXT514  -1.0000
     6 OAF         20.5840    25.8810    23.3610 O.co2        1 EXT514  -1.0000
     7 OAG         22.2140    27.4850    22.3240 O.3          1 EXT514   0.0000
     8 CAH         23.3730    28.3050    22.3200 C.3          1 EXT514   0.0000
     9 CAI         23.8400    28.5900    20.8950 C.2          1 EXT514   0.0000
    10 NAJ         25.6540    28.4940    19.3600 N.2          1 EXT514   0.0000
    11 CAK         25.1590    28.2820    20.5700 C.2          1 EXT514   0.0000
    12 CAL         24.8960    29.0230    18.3910 C.2          1 EXT514   0.0000
    13 CAM         25.4900    29.2630    17.0070 C.3          1 EXT514   0.0000
    14 CAN         23.5730    29.3570    18.6450 C.2          1 EXT514   0.0000
    15 OAO         22.7990    29.8940    17.6710 O.2          1 EXT514   0.0000
    16 OAP         15.4330    29.8970    21.3740 O.co2        1 EXT514   0.0000
    17 PAQ         16.5370    30.8550    20.6050 P.3          1 EXT514   0.0000
    18 OAR         16.4080    30.8370    19.1180 O.co2        1 EXT514  -1.0000
    19 OAS         16.3360    32.3780    21.1730 O.co2        1 EXT514  -1.0000
    20 OAT         17.9640    30.3130    21.1680 O.3          1 EXT514   0.0000
    21 CAU         19.0500    30.0180    20.2810 C.3          1 EXT514   0.0000
    22 CAV         19.9980    31.2210    20.2420 C.3          1 EXT514   0.0000
    23 NAW         21.3710    30.7510    20.0030 N.pl3        1 EXT514   0.0000
    24 HAB         21.0387    28.7935    20.4391 H            1 EXT514   0.0000
    25 HAH1        24.1050    27.8382    22.8163 H            1 EXT514   0.0000
    26 HAH2        23.1620    29.1708    22.7738 H            1 EXT514   0.0000
    27 HAK         25.7512    27.8881    21.2729 H            1 EXT514   0.0000
    28 HAM1        24.7932    29.6597    16.4094 H            1 EXT514   0.0000
    29 HAM2        26.2635    29.8925    17.0808 H            1 EXT514   0.0000
    30 HAM3        25.8028    28.3941    16.6233 H            1 EXT514   0.0000
    31 HAU1        18.6952    29.8401    19.3632 H            1 EXT514   0.0000
    32 HAU2        19.5429    29.2124    20.6098 H            1 EXT514   0.0000
    33 HAV1        19.9583    31.7059    21.1157 H            1 EXT514   0.0000
    34 HAV2        19.7235    31.8388    19.5051 H            1 EXT514   0.0000
    35 HAW         22.0680    31.4091    19.7182 H            1 EXT514   0.0000
@<TRIPOS>BOND
     1    1    2       2
     2    1    9       1
     3    1   14       1
     4    2   23       1
     5    3    4      ar
     6    3    5      ar
     7    3    6      ar
     8    3    7       1
     9    7    8       1
    10    8    9       1
    11    9   11       2
    12   10   11       1
    13   10   12       2
    14   12   13       1
    15   12   14       1
    16   14   15       2
    17   16   17      ar
    18   17   18      ar
    19   17   19      ar
    20   17   20       1
    21   20   21       1
    22   21   22       1
    23   22   23       1
    24    2   24       1
    25   22   34       1
    26   22   33       1
    27    8   25       1
    28    8   26       1
    29   11   27       1
    30   13   28       1
    31   13   29       1
    32   13   30       1
    33   21   32       1
    34   21   31       1
    35   23   35       1
@<TRIPOS>SUBSTRUCTURE
     1 EXT514      1 GROUP             4 D     EXT     0 **** EXT D 514
