@<TRIPOS>MOLECULE
1ybu_APC_2_ligand
   45    47     1     0     0
SMALL
NO_CHARGES


@<TRIPOS>ATOM
     1 PG          21.4970    58.9270    59.5140 P.3          1 APC602   0.0000
     2 O1G         20.2920    58.2840    58.6610 O.co2        1 APC602   0.0000
     3 O2G         21.5590    58.3690    60.8840 O.co2        1 APC602  -1.0000
     4 O3G         21.2370    60.5170    59.5130 O.co2        1 APC602  -1.0000
     5 PB          22.9120    59.0950    57.1110 P.3          1 APC602   0.0000
     6 O1B         21.8140    60.1310    56.5570 O.co2        1 APC602   0.0000
     7 O2B         23.2610    57.7990    56.2210 O.co2        1 APC602  -1.0000
     8 O3B         22.8500    58.6880    58.6710 O.3          1 APC602   0.0000
     9 PA          25.8620    58.9490    57.1420 P.3          1 APC602   0.0000
    10 O1A         25.6110    57.4450    57.6460 O.co2        1 APC602   0.0000
    11 O2A         27.1410    59.7530    57.7150 O.co2        1 APC602  -1.0000
    12 C3A         24.4410    60.0590    57.0160 C.3          1 APC602   0.0000
    13 O5'         26.2550    58.7270    55.6020 O.3          1 APC602   0.0000
    14 C5'         27.6090    59.0240    55.2280 C.3          1 APC602   0.0000
    15 C4'         27.8870    60.5510    55.1340 C.3          1 APC602   0.0000
    16 O4'         28.9080    61.1640    55.9940 O.3          1 APC602   0.0000
    17 C3'         28.5120    60.3340    53.7580 C.3          1 APC602   0.0000
    18 O3'         27.9210    61.3770    52.9970 O.3          1 APC602   0.0000
    19 C2'         29.9600    60.7080    54.0110 C.3          1 APC602   0.0000
    20 O2'         30.7030    60.8010    52.7980 O.3          1 APC602   0.0000
    21 C1'         29.9320    61.7150    55.1440 C.3          1 APC602   0.0000
    22 N9          31.2530    62.0040    55.7660 N.pl3        1 APC602   0.0000
    23 C8          31.3590    62.4990    57.0010 C.2          1 APC602   0.0000
    24 N7          32.6320    62.8000    57.2330 N.2          1 APC602   0.0000
    25 C5          33.3640    62.4890    56.1470 C.ar         1 APC602   0.0000
    26 C6          34.6930    62.5840    55.8210 C.ar         1 APC602   0.0000
    27 N6          35.5770    63.1130    56.6680 N.pl3        1 APC602   0.0000
    28 N1          35.0750    62.1490    54.5950 N.ar         1 APC602   0.0000
    29 C2          34.2330    61.6580    53.7120 C.ar         1 APC602   0.0000
    30 N3          32.9440    61.5690    54.0110 N.ar         1 APC602   0.0000
    31 C4          32.4660    61.9670    55.2080 C.ar         1 APC602   0.0000
    32 H3A1        24.4661    60.7191    57.7668 H            1 APC602   0.0000
    33 H3A2        24.4745    60.5456    56.1430 H            1 APC602   0.0000
    34 H5'1        27.7922    58.6104    54.3362 H            1 APC602   0.0000
    35 H5'2        28.2232    58.6289    55.9111 H            1 APC602   0.0000
    36 H4'         27.0467    61.0915    55.0921 H            1 APC602   0.0000
    37 H3'         28.3791    59.4174    53.3808 H            1 APC602   0.0000
    38 H7          28.2604    61.3374    52.0572 H            1 APC602   0.0000
    39 H2'         30.3342    59.8882    54.4446 H            1 APC602   0.0000
    40 H9          31.6495    61.0485    53.0050 H            1 APC602   0.0000
    41 H1'         29.5818    62.5746    54.7720 H            1 APC602   0.0000
    42 H11         30.6045    62.6229    57.6455 H            1 APC602   0.0000
    43 H12         36.5416    63.1731    56.4111 H            1 APC602   0.0000
    44 H13         35.2753    63.4496    57.5600 H            1 APC602   0.0000
    45 H14         34.5634    61.3530    52.8188 H            1 APC602   0.0000
@<TRIPOS>BOND
     1    1    2      ar
     2    1    3      ar
     3    1    4      ar
     4    1    8       1
     5    5    6      ar
     6    5    7      ar
     7    5    8       1
     8    5   12       1
     9    9   10      ar
    10    9   11      ar
    11    9   12       1
    12    9   13       1
    13   13   14       1
    14   14   15       1
    15   15   16       1
    16   15   17       1
    17   16   21       1
    18   17   18       1
    19   17   19       1
    20   19   20       1
    21   19   21       1
    22   21   22       1
    23   22   23       1
    24   22   31       1
    25   23   24       2
    26   24   25       1
    27   25   26      ar
    28   25   31      ar
    29   26   27       1
    30   26   28      ar
    31   28   29      ar
    32   29   30      ar
    33   30   31      ar
    34   29   45       1
    35   27   44       1
    36   27   43       1
    37   23   42       1
    38   12   32       1
    39   12   33       1
    40   14   34       1
    41   14   35       1
    42   15   36       1
    43   17   37       1
    44   18   38       1
    45   19   39       1
    46   20   40       1
    47   21   41       1
@<TRIPOS>SUBSTRUCTURE
     1 APC602      1 GROUP             4 D     APC     0 **** APC D 602
