@<TRIPOS>MOLECULE
2c3q_GTX_4_ligand
   54    53     1     0     0
SMALL
NO_CHARGES


@<TRIPOS>ATOM
     1 N1          28.7330   -19.4700   -66.1420 N.4          1 GTX301   1.0000
     2 CA1         29.3340   -18.1320   -66.1580 C.3          1 GTX301   0.0000
     3 C1          28.6800   -17.2080   -65.1720 C.2          1 GTX301   0.0000
     4 O11         27.4990   -17.4180   -64.8270 O.co2        1 GTX301   0.0000
     5 O12         29.2920   -16.2120   -64.7190 O.co2        1 GTX301  -1.0000
     6 CB1         29.1740   -17.5330   -67.5330 C.3          1 GTX301   0.0000
     7 CG1         30.3700   -16.6560   -67.8500 C.3          1 GTX301   0.0000
     8 CD1         30.2590   -16.2960   -69.3030 C.2          1 GTX301   0.0000
     9 OE1         30.3240   -17.2920   -70.2770 O.2          1 GTX301   0.0000
    10 N2          30.1070   -15.0230   -69.5760 N.am         1 GTX301   0.0000
    11 CA2         29.8770   -14.5910   -70.9300 C.3          1 GTX301   0.0000
    12 C2          31.1060   -13.9520   -71.5060 C.2          1 GTX301   0.0000
    13 O2          31.6440   -12.7890   -70.9500 O.2          1 GTX301   0.0000
    14 CB2         28.6600   -13.6770   -70.9610 C.3          1 GTX301   0.0000
    15 SG2         28.4310   -12.7120   -72.4780 S.3          1 GTX301   0.0000
    16 C1S         28.1970   -14.1100   -73.6160 C.3          1 GTX301   0.0000
    17 C2S         28.4920   -13.7380   -75.0750 C.3          1 GTX301   0.0000
    18 C3S         29.7410   -12.8800   -75.2880 C.3          1 GTX301   0.0000
    19 C4S         29.9060   -12.4650   -76.7430 C.3          1 GTX301   0.0000
    20 C5S         30.5570   -11.0920   -76.8600 C.3          1 GTX301   0.0000
    21 C6S         29.5580   -10.0490   -77.3610 C.3          1 GTX301   0.0000
    22 N3          31.6370   -14.5330   -72.5710 N.am         1 GTX301   0.0000
    23 CA3         32.7550   -13.8870   -73.2390 C.3          1 GTX301   0.0000
    24 C3          33.4460   -14.7630   -74.2460 C.2          1 GTX301   0.0000
    25 O31         34.0720   -14.2010   -75.1750 O.co2        1 GTX301   0.0000
    26 O32         33.3960   -16.0110   -74.1560 O.co2        1 GTX301  -1.0000
    27 H1          28.8077   -19.8799   -67.0511 H            1 GTX301   0.0000
    28 H2          29.2128   -20.0430   -65.4775 H            1 GTX301   0.0000
    29 HA1         30.3078   -18.2064   -65.9430 H            1 GTX301   0.0000
    30 HB11        28.3405   -16.9812   -67.5604 H            1 GTX301   0.0000
    31 HB12        29.1107   -18.2664   -68.2099 H            1 GTX301   0.0000
    32 HG11        31.2196   -17.1558   -67.6815 H            1 GTX301   0.0000
    33 HG12        30.3520   -15.8299   -67.2868 H            1 GTX301   0.0000
    34 H8          30.1510   -14.3480   -68.8395 H            1 GTX301   0.0000
    35 HA2         29.6666   -15.4003   -71.4784 H            1 GTX301   0.0000
    36 HB21        28.7401   -13.0347   -70.1987 H            1 GTX301   0.0000
    37 HB22        27.8470   -14.2453   -70.8340 H            1 GTX301   0.0000
    38 H1S1        27.2490   -14.4215   -73.5502 H            1 GTX301   0.0000
    39 H1S2        28.8110   -14.8509   -73.3438 H            1 GTX301   0.0000
    40 H2S1        27.7054   -13.2333   -75.4308 H            1 GTX301   0.0000
    41 H2S2        28.6066   -14.5854   -75.5934 H            1 GTX301   0.0000
    42 H3S1        30.5449   -13.4051   -75.0089 H            1 GTX301   0.0000
    43 H3S2        29.6678   -12.0575   -74.7240 H            1 GTX301   0.0000
    44 H4S1        29.0056   -12.4361   -77.1771 H            1 GTX301   0.0000
    45 H4S2        30.4797   -13.1378   -77.2101 H            1 GTX301   0.0000
    46 H5S1        31.3214   -11.1469   -77.5024 H            1 GTX301   0.0000
    47 H5S2        30.8962   -10.8139   -75.9613 H            1 GTX301   0.0000
    48 H6S1        30.0102    -9.1596   -77.4284 H            1 GTX301   0.0000
    49 H6S2        29.2178   -10.3190   -78.2617 H            1 GTX301   0.0000
    50 H6S3        28.7925    -9.9861   -76.7206 H            1 GTX301   0.0000
    51 H25         31.2751   -15.4014   -72.9100 H            1 GTX301   0.0000
    52 HA31        33.4227   -13.6157   -72.5458 H            1 GTX301   0.0000
    53 HA32        32.4139   -13.0734   -73.7098 H            1 GTX301   0.0000
    54 H28         27.7688   -19.3993   -65.8865 H            1 GTX301   0.0000
@<TRIPOS>BOND
     1    1    2       1
     2    2    3       1
     3    2    6       1
     4    3    4      ar
     5    3    5      ar
     6    6    7       1
     7    7    8       1
     8    8    9       2
     9    8   10      am
    10   10   11       1
    11   11   12       1
    12   11   14       1
    13   12   13       2
    14   12   22      am
    15   14   15       1
    16   15   16       1
    17   16   17       1
    18   17   18       1
    19   18   19       1
    20   19   20       1
    21   20   21       1
    22   22   23       1
    23   23   24       1
    24   24   25      ar
    25   24   26      ar
    26    1   27       1
    27    1   28       1
    28    2   29       1
    29    1   54       1
    30    6   30       1
    31    6   31       1
    32    7   32       1
    33    7   33       1
    34   10   34       1
    35   11   35       1
    36   14   36       1
    37   14   37       1
    38   16   38       1
    39   16   39       1
    40   17   40       1
    41   17   41       1
    42   18   42       1
    43   18   43       1
    44   19   44       1
    45   19   45       1
    46   20   46       1
    47   20   47       1
    48   21   48       1
    49   21   49       1
    50   21   50       1
    51   22   51       1
    52   23   52       1
    53   23   53       1
@<TRIPOS>SUBSTRUCTURE
     1 GTX301      1 GROUP             4 D     GTX     0 **** GTX D 301
