@<TRIPOS>MOLECULE
4ne0_ZZU_1_ligand
   27    26     1     0     0
SMALL
NO_CHARGES


@<TRIPOS>ATOM
     1 OXT        -35.1690    13.7160     9.8530 O.co2        1 ZZU403   0.0000
     2 C          -35.5450    13.5710    11.0180 C.2          1 ZZU403   0.0000
     3 O          -35.3150    12.5260    11.6480 O.co2        1 ZZU403  -1.0000
     4 CA         -36.2130    14.7000    11.7100 C.3          1 ZZU403   0.0000
     5 N          -37.5300    14.2680    12.2690 N.3          1 ZZU403   0.0000
     6 CB         -35.2180    14.8460    12.8130 C.3          1 ZZU403   0.0000
     7 OB         -33.9640    15.3270    12.2190 O.3          1 ZZU403   0.0000
     8 CG         -35.9200    15.6510    13.8910 C.3          1 ZZU403   0.0000
     9 CD         -35.8300    14.8990    15.2150 C.3          1 ZZU403   0.0000
    10 NE         -35.3830    15.8030    16.2440 N.pl3        1 ZZU403   1.0000
    11 CZ         -34.5730    15.5000    17.2570 C.cat        1 ZZU403   0.0000
    12 NH2        -34.0930    14.3610    17.4550 N.pl3        1 ZZU403   0.0000
    13 NH1        -34.2880    16.4500    18.1300 N.pl3        1 ZZU403   0.0000
    14 HA         -36.2830    15.5183    11.1395 H            1 ZZU403   0.0000
    15 H2         -37.9123    13.5414    11.6981 H            1 ZZU403   0.0000
    16 HB         -35.0444    13.9337    13.1840 H            1 ZZU403   0.0000
    17 H4         -33.6401    14.6653    11.5428 H            1 ZZU403   0.0000
    18 HG1        -36.8803    15.7774    13.6424 H            1 ZZU403   0.0000
    19 HG2        -35.4791    16.5439    13.9826 H            1 ZZU403   0.0000
    20 HD1        -35.1799    14.1442    15.1274 H            1 ZZU403   0.0000
    21 HD2        -36.7305    14.5370    15.4559 H            1 ZZU403   0.0000
    22 HH21       -33.4901    14.2015    18.2367 H            1 ZZU403   0.0000
    23 HH22       -34.3125    13.6106    16.8315 H            1 ZZU403   0.0000
    24 HH11       -33.6829    16.2546    18.9018 H            1 ZZU403   0.0000
    25 HH12       -34.6774    17.3644    18.0189 H            1 ZZU403   0.0000
    26 H13        -37.4012    13.9273    13.2003 H            1 ZZU403   0.0000
    27 HE         -35.7116    16.7461    16.1929 H            1 ZZU403   0.0000
@<TRIPOS>BOND
     1    1    2      ar
     2    2    3      ar
     3    2    4       1
     4    4    5       1
     5    4    6       1
     6    6    7       1
     7    6    8       1
     8    8    9       1
     9    9   10       1
    10   10   11      ar
    11   11   12      ar
    12   11   13      ar
    13   13   25       1
    14    4   14       1
    15   10   27       1
    16    5   15       1
    17    6   16       1
    18    7   17       1
    19    8   18       1
    20    8   19       1
    21    9   20       1
    22    9   21       1
    23   12   22       1
    24   12   23       1
    25   13   24       1
    26    5   26       1
@<TRIPOS>SUBSTRUCTURE
     1 ZZU403      1 GROUP             4 C     ZZU     0 **** ZZU C 403
