@<TRIPOS>MOLECULE
3gy0_NAP_1_ligand
   73    77     1     0     0
SMALL
NO_CHARGES


@<TRIPOS>ATOM
     1 PA          36.0080    22.5200    -3.2710 P.3          1 NAP500   0.0000
     2 O1A         37.0390    21.5630    -3.7160 O.co2        1 NAP500   0.0000
     3 O2A         36.4130    23.4270    -2.1650 O.co2        1 NAP500  -1.0000
     4 O5B         35.5700    23.3630    -4.5560 O.3          1 NAP500   0.0000
     5 C5B         34.7240    24.5000    -4.4860 C.3          1 NAP500   0.0000
     6 C4B         34.8710    25.2600    -5.7980 C.3          1 NAP500   0.0000
     7 O4B         34.0200    26.4020    -5.6830 O.3          1 NAP500   0.0000
     8 C3B         36.3000    25.7290    -6.0210 C.3          1 NAP500   0.0000
     9 O3B         36.6520    25.5470    -7.3720 O.3          1 NAP500   0.0000
    10 C2B         36.1650    27.2340    -5.7970 C.3          1 NAP500   0.0000
    11 O2B         37.0030    27.9690    -6.6550 O.3          1 NAP500   0.0000
    12 C1B         34.6830    27.5080    -6.1380 C.3          1 NAP500   0.0000
    13 N9A         34.3390    28.7360    -5.4100 N.pl3        1 NAP500   0.0000
    14 C8A         34.2620    28.8950    -4.0340 C.2          1 NAP500   0.0000
    15 N7A         34.0270    30.2110    -3.8060 N.2          1 NAP500   0.0000
    16 C5A         33.9920    30.8820    -4.9960 C.ar         1 NAP500   0.0000
    17 C6A         33.8280    32.2260    -5.3420 C.ar         1 NAP500   0.0000
    18 N6A         33.6680    33.1930    -4.4400 N.pl3        1 NAP500   0.0000
    19 N1A         33.8420    32.5890    -6.6720 N.ar         1 NAP500   0.0000
    20 C2A         34.0290    31.6440    -7.6600 C.ar         1 NAP500   0.0000
    21 N3A         34.1990    30.3260    -7.3190 N.ar         1 NAP500   0.0000
    22 C4A         34.1870    29.9490    -6.0080 C.ar         1 NAP500   0.0000
    23 O3          34.6730    21.7820    -2.8270 O.3          1 NAP500   0.0000
    24 PN          33.7410    20.6810    -3.5510 P.3          1 NAP500   0.0000
    25 O1N         34.3680    20.2490    -4.8080 O.co2        1 NAP500   0.0000
    26 O2N         33.4250    19.6740    -2.5140 O.co2        1 NAP500  -1.0000
    27 O5D         32.4190    21.5270    -3.8360 O.3          1 NAP500   0.0000
    28 C5D         31.7930    21.5160    -5.1190 C.3          1 NAP500   0.0000
    29 C4D         30.2760    21.5610    -4.9590 C.3          1 NAP500   0.0000
    30 O4D         29.8910    20.3180    -4.3930 O.3          1 NAP500   0.0000
    31 C3D         29.8110    22.6780    -4.0180 C.3          1 NAP500   0.0000
    32 O3D         28.6620    23.2890    -4.5780 O.3          1 NAP500   0.0000
    33 C2D         29.4610    21.8940    -2.7750 C.3          1 NAP500   0.0000
    34 O2D         28.4400    22.5510    -2.0360 O.3          1 NAP500   0.0000
    35 C1D         28.9550    20.6040    -3.3770 C.3          1 NAP500   0.0000
    36 N1N         28.9410    19.4780    -2.4610 N.ar         1 NAP500   1.0000
    37 C2N         30.1130    18.9060    -2.0180 C.ar         1 NAP500   0.0000
    38 C3N         30.0550    17.8170    -1.1550 C.ar         1 NAP500   0.0000
    39 C7N         31.3130    17.1120    -0.7490 C.2          1 NAP500   0.0000
    40 O7N         31.1630    16.0970     0.1650 O.2          1 NAP500   0.0000
    41 N7N         32.5160    17.4460    -1.2240 N.am         1 NAP500   0.0000
    42 C4N         28.8140    17.3020    -0.7510 C.ar         1 NAP500   0.0000
    43 C5N         27.6400    17.9040    -1.2070 C.ar         1 NAP500   0.0000
    44 C6N         27.7090    19.0000    -2.0710 C.ar         1 NAP500   0.0000
    45 P2B         38.4870    28.5220    -6.3020 P.3          1 NAP500   0.0000
    46 O1X         39.0270    29.0360    -7.6240 O.co2        1 NAP500   0.0000
    47 O2X         38.4420    29.5580    -5.1870 O.co2        1 NAP500  -1.0000
    48 O3X         39.2580    27.3300    -5.8120 O.co2        1 NAP500  -1.0000
    49 H5B1        34.9978    25.0829    -3.7210 H            1 NAP500   0.0000
    50 H5B2        33.7743    24.2121    -4.3625 H            1 NAP500   0.0000
    51 H4B         34.5747    24.6867    -6.5619 H            1 NAP500   0.0000
    52 H3B         36.9493    25.3017    -5.3919 H            1 NAP500   0.0000
    53 H5          37.3196    26.2419    -7.6390 H            1 NAP500   0.0000
    54 H2B         36.3530    27.4642    -4.8422 H            1 NAP500   0.0000
    55 H1B         34.5554    27.6250    -7.1229 H            1 NAP500   0.0000
    56 H8A         34.3607    28.1780    -3.3439 H            1 NAP500   0.0000
    57 H6A1        33.5543    34.1408    -4.7379 H            1 NAP500   0.0000
    58 H6A2        33.6616    32.9712    -3.4649 H            1 NAP500   0.0000
    59 H2A         34.0406    31.9189    -8.6214 H            1 NAP500   0.0000
    60 H5D1        32.0502    20.6813    -5.6060 H            1 NAP500   0.0000
    61 H5D2        32.0948    22.3133    -5.6417 H            1 NAP500   0.0000
    62 H4D         29.8450    21.6724    -5.8545 H            1 NAP500   0.0000
    63 H3D         30.5373    23.3431    -3.8446 H            1 NAP500   0.0000
    64 H16         28.8904    23.6706    -5.4737 H            1 NAP500   0.0000
    65 H2D         30.2701    21.7349    -2.2093 H            1 NAP500   0.0000
    66 H18         28.7567    23.4602    -1.7656 H            1 NAP500   0.0000
    67 H1D         28.0464    20.7397    -3.7721 H            1 NAP500   0.0000
    68 H2N         30.9962    19.2699    -2.3138 H            1 NAP500   0.0000
    69 H7N1        33.3285    16.9463    -0.9238 H            1 NAP500   0.0000
    70 H7N2        32.6041    18.1958    -1.8798 H            1 NAP500   0.0000
    71 H4N         28.7709    16.5104    -0.1415 H            1 NAP500   0.0000
    72 H5N         26.7507    17.5513    -0.9157 H            1 NAP500   0.0000
    73 H6N         26.8715    19.4337    -2.4034 H            1 NAP500   0.0000
@<TRIPOS>BOND
     1    1    2      ar
     2    1    3      ar
     3    1    4       1
     4    1   23       1
     5    4    5       1
     6    5    6       1
     7    6    7       1
     8    6    8       1
     9    7   12       1
    10    8    9       1
    11    8   10       1
    12   10   11       1
    13   10   12       1
    14   11   45       1
    15   12   13       1
    16   13   14       1
    17   13   22       1
    18   14   15       2
    19   15   16       1
    20   16   17      ar
    21   16   22      ar
    22   17   18       1
    23   17   19      ar
    24   19   20      ar
    25   20   21      ar
    26   21   22      ar
    27   23   24       1
    28   24   25      ar
    29   24   26      ar
    30   24   27       1
    31   27   28       1
    32   28   29       1
    33   29   30       1
    34   29   31       1
    35   30   35       1
    36   31   32       1
    37   31   33       1
    38   33   34       1
    39   33   35       1
    40   35   36       1
    41   36   37      ar
    42   36   44      ar
    43   37   38      ar
    44   38   39       1
    45   38   42      ar
    46   39   40       2
    47   39   41      am
    48   42   43      ar
    49   43   44      ar
    50   45   46      ar
    51   45   47      ar
    52   45   48      ar
    53   43   72       1
    54    5   49       1
    55    5   50       1
    56    6   51       1
    57    8   52       1
    58    9   53       1
    59   10   54       1
    60   12   55       1
    61   14   56       1
    62   18   57       1
    63   18   58       1
    64   20   59       1
    65   44   73       1
    66   28   60       1
    67   28   61       1
    68   29   62       1
    69   31   63       1
    70   32   64       1
    71   33   65       1
    72   34   66       1
    73   35   67       1
    74   37   68       1
    75   41   69       1
    76   41   70       1
    77   42   71       1
@<TRIPOS>SUBSTRUCTURE
     1 NAP500      1 GROUP             4 A     NAP     0 **** NAP A 500
