@<TRIPOS>MOLECULE
4a6n_T1C_1_ligand
   83    86     1     0     0
SMALL
NO_CHARGES


@<TRIPOS>ATOM
     1 C94         -4.5330    15.4470    30.0650 C.3          1 T1C392   0.0000
     2 C93         -5.9440    15.2430    29.4360 C.3          1 T1C392   0.0000
     3 C95         -6.7340    14.1340    30.1550 C.3          1 T1C392   0.0000
     4 C96         -6.7490    16.5620    29.4650 C.3          1 T1C392   0.0000
     5 N92         -5.7630    14.8400    28.0180 N.4          1 T1C392   1.0000
     6 C92         -5.0640    13.5380    27.8600 C.3          1 T1C392   0.0000
     7 C91         -3.9350    13.6030    26.8150 C.2          1 T1C392   0.0000
     8 O91         -3.8470    14.5830    26.0870 O.2          1 T1C392   0.0000
     9 N9          -3.1260    12.5310    26.7820 N.am         1 T1C392   0.0000
    10 C9          -2.0770    12.3050    25.9460 C.ar         1 T1C392   0.0000
    11 C8          -0.9850    13.1630    25.8090 C.ar         1 T1C392   0.0000
    12 C7           0.0880    12.8370    24.9460 C.ar         1 T1C392   0.0000
    13 N7           1.1290    13.6790    24.7650 N.pl3        1 T1C392   0.0000
    14 C71          2.3910    13.0890    25.2220 C.3          1 T1C392   0.0000
    15 C72          0.9320    15.0510    25.2890 C.3          1 T1C392   0.0000
    16 C61          0.1000    11.6280    24.2070 C.ar         1 T1C392   0.0000
    17 C6           1.2620    11.2230    23.2300 C.3          1 T1C392   0.0000
    18 C51          0.7670    10.4380    21.9850 C.3          1 T1C392   0.0000
    19 C5           1.8700     9.8530    21.0650 C.3          1 T1C392   0.0000
    20 C41          1.1930     9.1050    19.8850 C.3          1 T1C392   0.0000
    21 C4           2.1190     8.6600    18.6850 C.3          1 T1C392   0.0000
    22 N4           1.5740     9.0440    17.3760 N.4          1 T1C392   1.0000
    23 C43          1.8600    10.4860    17.3090 C.3          1 T1C392   0.0000
    24 C42          2.2320     8.3050    16.2700 C.3          1 T1C392   0.0000
    25 C3           2.8070     7.2680    18.7640 C.2          1 T1C392   0.0000
    26 O3           3.8020     7.0530    17.8200 O.3          1 T1C392   0.0000
    27 C2           2.5200     6.3560    19.8270 C.2          1 T1C392   0.0000
    28 C21          3.2840     4.9600    20.0960 C.2          1 T1C392   0.0000
    29 O21          4.2060     4.5890    19.3730 O.2          1 T1C392   0.0000
    30 N21          2.9130     4.1830    21.1550 N.am         1 T1C392   0.0000
    31 C1           1.4960     6.7040    20.7140 C.2          1 T1C392   0.0000
    32 O1           1.3410     5.9510    21.6810 O.2          1 T1C392   0.0000
    33 C1C          0.5170     7.9210    20.4690 C.3          1 T1C392   0.0000
    34 O1C         -0.3870     7.4060    19.4810 O.3          1 T1C392   0.0000
    35 C12         -0.4120     8.2450    21.6670 C.2          1 T1C392   0.0000
    36 O12         -1.3910     7.3560    21.9690 O.3          1 T1C392   0.0000
    37 C1B         -0.2560     9.3920    22.4340 C.2          1 T1C392   0.0000
    38 C11         -1.0200     9.5690    23.6090 C.2          1 T1C392   0.0000
    39 O11         -1.9030     8.7470    23.8210 O.2          1 T1C392   0.0000
    40 C1A         -0.9890    10.7580    24.3740 C.ar         1 T1C392   0.0000
    41 C10         -2.0570    11.0960    25.2410 C.ar         1 T1C392   0.0000
    42 O10         -3.1130    10.2430    25.3970 O.3          1 T1C392   0.0000
    43 H1          -4.0508    16.1725    29.5739 H            1 T1C392   0.0000
    44 H2          -4.6306    15.7034    31.0266 H            1 T1C392   0.0000
    45 H3          -4.0121    14.5960    29.9982 H            1 T1C392   0.0000
    46 H4          -7.6312    14.0318    29.7254 H            1 T1C392   0.0000
    47 H5          -6.2326    13.2713    30.0891 H            1 T1C392   0.0000
    48 H6          -6.8512    14.3787    31.1175 H            1 T1C392   0.0000
    49 H7          -7.6499    16.4117    29.0579 H            1 T1C392   0.0000
    50 H8          -6.8574    16.8656    30.4116 H            1 T1C392   0.0000
    51 H9          -6.2605    17.2621    28.9442 H            1 T1C392   0.0000
    52 H10         -5.2279    15.5457    27.5536 H            1 T1C392   0.0000
    53 H11         -5.7291    12.8489    27.5722 H            1 T1C392   0.0000
    54 H12         -4.6715    13.2748    28.7413 H            1 T1C392   0.0000
    55 H13         -3.3178    11.8137    27.4518 H            1 T1C392   0.0000
    56 H14         -0.9605    14.0182    26.3267 H            1 T1C392   0.0000
    57 H15          3.1362    13.7389    25.0726 H            1 T1C392   0.0000
    58 H16          2.3254    12.8753    26.1967 H            1 T1C392   0.0000
    59 H17          2.5722    12.2503    24.7084 H            1 T1C392   0.0000
    60 H18          1.7504    15.5970    25.1096 H            1 T1C392   0.0000
    61 H19          0.1453    15.4709    24.8364 H            1 T1C392   0.0000
    62 H20          0.7674    15.0110    26.2745 H            1 T1C392   0.0000
    63 H21          1.9122    10.6503    23.7293 H            1 T1C392   0.0000
    64 H22          1.7210    12.0554    22.9194 H            1 T1C392   0.0000
    65 H23          0.2620    11.0961    21.4265 H            1 T1C392   0.0000
    66 H24          2.4383     9.2155    21.5852 H            1 T1C392   0.0000
    67 H25          2.4398    10.5943    20.7103 H            1 T1C392   0.0000
    68 H26          0.4844     9.7050    19.5136 H            1 T1C392   0.0000
    69 H27          2.8959     9.2826    18.7786 H            1 T1C392   0.0000
    70 H28          1.5236    10.8526    16.4416 H            1 T1C392   0.0000
    71 H29          1.4037    10.9519    18.0671 H            1 T1C392   0.0000
    72 H30          2.8470    10.6334    17.3728 H            1 T1C392   0.0000
    73 H31          1.8372     8.5909    15.3968 H            1 T1C392   0.0000
    74 H32          3.2122     8.5032    16.2735 H            1 T1C392   0.0000
    75 H33          2.0900     7.3230    16.3944 H            1 T1C392   0.0000
    76 H34          4.2946     6.1829    17.8021 H            1 T1C392   0.0000
    77 H35          3.3817     3.3168    21.3280 H            1 T1C392   0.0000
    78 H36          2.1725     4.4800    21.7579 H            1 T1C392   0.0000
    79 H1C         -1.1659     6.9735    19.9351 H            1 T1C392   0.0000
    80 H38         -2.0084     7.5333    22.7354 H            1 T1C392   0.0000
    81 H39         -3.1284     9.3714    24.9069 H            1 T1C392   0.0000
    82 H40         -6.6644    14.7699    27.5907 H            1 T1C392   0.0000
    83 H41          0.5865     8.8876    17.3549 H            1 T1C392   0.0000
@<TRIPOS>BOND
     1    1    2       1
     2    2    3       1
     3    2    4       1
     4    2    5       1
     5    5    6       1
     6    6    7       1
     7    7    8       2
     8    7    9      am
     9    9   10       1
    10   10   11      ar
    11   10   41      ar
    12   11   12      ar
    13   12   13       1
    14   12   16      ar
    15   13   14       1
    16   13   15       1
    17   16   17       1
    18   16   40      ar
    19   17   18       1
    20   18   19       1
    21   18   37       1
    22   19   20       1
    23   20   21       1
    24   20   33       1
    25   21   22       1
    26   21   25       1
    27   22   23       1
    28   22   24       1
    29   25   26       1
    30   25   27       2
    31   27   28       1
    32   27   31       1
    33   28   29       2
    34   28   30      am
    35   31   32       2
    36   31   33       1
    37   33   34       1
    38   33   35       1
    39   35   36       1
    40   35   37       2
    41   37   38       1
    42   38   39       2
    43   38   40       1
    44   40   41      ar
    45   41   42       1
    46    1   43       1
    47    1   44       1
    48    1   45       1
    49    3   46       1
    50    3   47       1
    51    3   48       1
    52    4   49       1
    53    4   50       1
    54    4   51       1
    55    5   52       1
    56    6   53       1
    57    6   54       1
    58    9   55       1
    59   11   56       1
    60   14   57       1
    61   14   58       1
    62   14   59       1
    63   15   60       1
    64   15   61       1
    65   15   62       1
    66   17   63       1
    67   17   64       1
    68   18   65       1
    69   19   66       1
    70   19   67       1
    71   20   68       1
    72   21   69       1
    73   23   70       1
    74   23   71       1
    75   23   72       1
    76   24   73       1
    77   24   74       1
    78   24   75       1
    79   26   76       1
    80   30   77       1
    81   30   78       1
    82   34   79       1
    83   36   80       1
    84   42   81       1
    85    5   82       1
    86   22   83       1
@<TRIPOS>SUBSTRUCTURE
     1 T1C392      1 GROUP             4 A     T1C     0 **** T1C A 392
