@<TRIPOS>MOLECULE
4ayv_9MQ_1_ligand
   79    82     1     0     0
SMALL
NO_CHARGES


@<TRIPOS>ATOM
     1 C1          29.8930    13.1300    25.2750 C.3          1 9MQ1258   0.0000
     2 C2          31.3070    13.5900    24.8610 C.2          1 9MQ1258   0.0000
     3 N3          29.7500    13.4180    26.6610 N.3          1 9MQ1258   0.0000
     4 C4          28.8640    13.9020    24.4000 C.3          1 9MQ1258   0.0000
     5 N5          31.8680    13.0410    23.7070 N.am         1 9MQ1258   0.0000
     6 O6          31.9250    14.4320    25.5460 O.2          1 9MQ1258   0.0000
     7 S7          29.3100    12.2750    27.7580 S.o2         1 9MQ1258   0.0000
     8 C8          28.8340    15.4080    24.5570 C.2          1 9MQ1258   0.0000
     9 C9          31.1810    11.9550    22.9330 C.3          1 9MQ1258   0.0000
    10 C10         33.0980    13.5900    23.1120 C.3          1 9MQ1258   0.0000
    11 C11         30.6550    11.3050    27.9310 C.ar         1 9MQ1258   0.0000
    12 O12         29.0630    13.0620    28.9540 O.2          1 9MQ1258   0.0000
    13 O13         28.3600    11.4260    27.1480 O.2          1 9MQ1258   0.0000
    14 N14         29.5500    16.1520    23.5980 N.am         1 9MQ1258   0.0000
    15 O15         28.2160    15.9780    25.4840 O.2          1 9MQ1258   0.0000
    16 C16         32.1270    10.8190    22.7310 C.ar         1 9MQ1258   0.0000
    17 C17         32.6770    14.5420    21.9980 C.2          1 9MQ1258   0.0000
    18 C18         30.7640    10.0600    27.3130 C.ar         1 9MQ1258   0.0000
    19 C19         31.7320    11.7770    28.7590 C.ar         1 9MQ1258   0.0000
    20 C20         29.5220    17.6380    23.6890 C.3          1 9MQ1258   0.0000
    21 C21         32.7400    10.1950    23.8550 C.ar         1 9MQ1258   0.0000
    22 C22         32.4150    10.4040    21.4390 C.ar         1 9MQ1258   0.0000
    23 O23         33.6120    14.6840    21.0680 O.co2        1 9MQ1258   0.0000
    24 O24         31.6230    15.1370    21.8670 O.co2        1 9MQ1258  -1.0000
    25 C25         31.9400     9.2660    27.5250 C.ar         1 9MQ1258   0.0000
    26 C26         32.8630    11.0470    28.9660 C.ar         1 9MQ1258   0.0000
    27 C27         30.8390    18.3690    24.0410 C.3          1 9MQ1258   0.0000
    28 C28         33.6560     9.1490    23.6740 C.ar         1 9MQ1258   0.0000
    29 C29         33.3350     9.3500    21.2520 C.ar         1 9MQ1258   0.0000
    30 C30         33.0030     9.7730    28.3620 C.ar         1 9MQ1258   0.0000
    31 C31         32.0880     7.9720    26.9330 C.ar         1 9MQ1258   0.0000
    32 C32         31.3550    18.0230    25.4550 C.3          1 9MQ1258   0.0000
    33 C33         31.9390    18.0500    22.9780 C.3          1 9MQ1258   0.0000
    34 C34         33.9590     8.7220    22.3530 C.ar         1 9MQ1258   0.0000
    35 C35         34.1770     9.0060    28.5940 C.ar         1 9MQ1258   0.0000
    36 C36         33.2400     7.2410    27.1760 C.ar         1 9MQ1258   0.0000
    37 N37         32.5790    18.8780    25.6450 N.pl3        1 9MQ1258   0.0000
    38 C38         33.1470    18.9460    23.2170 C.3          1 9MQ1258   0.0000
    39 C39         34.2830     7.7690    28.0090 C.ar         1 9MQ1258   0.0000
    40 C40         33.7130    18.6960    24.6470 C.3          1 9MQ1258   0.0000
    41 C41         32.4270    20.0940    26.3010 C.cat        1 9MQ1258   0.0000
    42 N42         33.5130    20.8500    26.3420 N.pl3        1 9MQ1258   1.0000
    43 N43         31.2690    20.4210    26.8120 N.pl3        1 9MQ1258   0.0000
    44 H1          29.7980    12.1464    25.1216 H            1 9MQ1258   0.0000
    45 H2          30.6358    13.7687    26.9650 H            1 9MQ1258   0.0000
    46 H3          27.9535    13.5554    24.6257 H            1 9MQ1258   0.0000
    47 H4          29.0692    13.7010    23.4421 H            1 9MQ1258   0.0000
    48 H5          30.8912    12.3103    22.0443 H            1 9MQ1258   0.0000
    49 H6          30.3810    11.6370    23.4419 H            1 9MQ1258   0.0000
    50 H7          33.6565    12.8501    22.7370 H            1 9MQ1258   0.0000
    51 H8          33.6221    14.0848    23.8051 H            1 9MQ1258   0.0000
    52 H9          30.0646    15.6930    22.8737 H            1 9MQ1258   0.0000
    53 H10         30.0278     9.7229    26.7262 H            1 9MQ1258   0.0000
    54 H11         31.6476    12.6717    29.1977 H            1 9MQ1258   0.0000
    55 H12         28.8509    17.8804    24.3897 H            1 9MQ1258   0.0000
    56 H13         29.2175    17.9846    22.8018 H            1 9MQ1258   0.0000
    57 H14         32.5157    10.5048    24.7790 H            1 9MQ1258   0.0000
    58 H15         31.9786    10.8438    20.6541 H            1 9MQ1258   0.0000
    59 H16         33.5940    11.4099    29.5438 H            1 9MQ1258   0.0000
    60 H17         30.6608    19.3526    24.0120 H            1 9MQ1258   0.0000
    61 H18         34.0890     8.7107    24.4617 H            1 9MQ1258   0.0000
    62 H19         33.5487     9.0426    20.3247 H            1 9MQ1258   0.0000
    63 H20         31.3670     7.5985    26.3494 H            1 9MQ1258   0.0000
    64 H21         31.5913    17.0532    25.5150 H            1 9MQ1258   0.0000
    65 H22         30.6639    18.2410    26.1441 H            1 9MQ1258   0.0000
    66 H23         31.5758    18.2169    22.0614 H            1 9MQ1258   0.0000
    67 H24         32.2131    17.0917    23.0585 H            1 9MQ1258   0.0000
    68 H25         34.6118     7.9794    22.2032 H            1 9MQ1258   0.0000
    69 H26         34.9116     9.3609    29.1723 H            1 9MQ1258   0.0000
    70 H27         33.3459     6.3350    26.7662 H            1 9MQ1258   0.0000
    71 H28         32.8724    19.9037    23.1311 H            1 9MQ1258   0.0000
    72 H29         33.8530    18.7396    22.5395 H            1 9MQ1258   0.0000
    73 H30         35.1058     7.2230    28.1667 H            1 9MQ1258   0.0000
    74 H31         34.0738    17.7655    24.7105 H            1 9MQ1258   0.0000
    75 H32         34.4434    19.3508    24.8413 H            1 9MQ1258   0.0000
    76 H33         33.4855    21.7404    26.7963 H            1 9MQ1258   0.0000
    77 H34         34.3608    20.5306    25.9187 H            1 9MQ1258   0.0000
    78 H35         31.1598    21.2959    27.2839 H            1 9MQ1258   0.0000
    79 H36         30.4924    19.7963    26.7310 H            1 9MQ1258   0.0000
@<TRIPOS>BOND
     1    1    2       1
     2    1    3       1
     3    1    4       1
     4    2    5      am
     5    2    6       2
     6    3    7       1
     7    4    8       1
     8    5    9       1
     9    5   10       1
    10    7   11       1
    11    7   12       2
    12    7   13       2
    13    8   14      am
    14    8   15       2
    15    9   16       1
    16   10   17       1
    17   11   18      ar
    18   11   19      ar
    19   14   20       1
    20   16   21      ar
    21   16   22      ar
    22   17   23      ar
    23   17   24      ar
    24   18   25      ar
    25   19   26      ar
    26   20   27       1
    27   21   28      ar
    28   22   29      ar
    29   25   30      ar
    30   25   31      ar
    31   26   30      ar
    32   27   32       1
    33   27   33       1
    34   28   34      ar
    35   29   34      ar
    36   30   35      ar
    37   31   36      ar
    38   32   37       1
    39   33   38       1
    40   35   39      ar
    41   36   39      ar
    42   37   40       1
    43   37   41      ar
    44   38   40       1
    45   41   42      ar
    46   41   43      ar
    47    1   44       1
    48    3   45       1
    49    4   46       1
    50    4   47       1
    51    9   48       1
    52    9   49       1
    53   10   50       1
    54   10   51       1
    55   14   52       1
    56   18   53       1
    57   19   54       1
    58   20   55       1
    59   20   56       1
    60   21   57       1
    61   22   58       1
    62   43   78       1
    63   26   59       1
    64   27   60       1
    65   28   61       1
    66   29   62       1
    67   31   63       1
    68   32   64       1
    69   32   65       1
    70   33   66       1
    71   33   67       1
    72   34   68       1
    73   35   69       1
    74   36   70       1
    75   38   71       1
    76   38   72       1
    77   39   73       1
    78   40   74       1
    79   40   75       1
    80   42   76       1
    81   42   77       1
    82   43   79       1
@<TRIPOS>SUBSTRUCTURE
     1 9MQ1258     1 GROUP             4 B     9MQ     0 **** 9MQ B1258
