@<TRIPOS>MOLECULE
3mlb_LJZ_1_ligand
   66    68     1     0     0
SMALL
NO_CHARGES


@<TRIPOS>ATOM
     1 OAA         11.7270   -28.7330   -12.2270 O.2          1 LJZ192   0.0000
     2 OAB         20.9760   -39.4560   -16.1250 O.2          1 LJZ192   0.0000
     3 OAC         10.0640   -33.0340   -11.0130 O.2          1 LJZ192   0.0000
     4 OAD         16.3510   -40.3750   -17.0120 O.2          1 LJZ192   0.0000
     5 CLAE         8.0930   -34.6060   -13.1910 Cl           1 LJZ192   0.0000
     6 CLAF        14.7670   -42.1090   -15.0220 Cl           1 LJZ192   0.0000
     7 CAG         15.3930   -30.9800   -13.9760 C.2          1 LJZ192   0.0000
     8 CAH         19.1470   -35.4090   -14.4940 C.2          1 LJZ192   0.0000
     9 CAI          5.3510   -34.9910   -10.2510 C.ar         1 LJZ192   0.0000
    10 CAJ         14.1480   -45.0660   -17.6660 C.ar         1 LJZ192   0.0000
    11 CAK          5.4030   -33.6970    -9.5940 C.ar         1 LJZ192   0.0000
    12 CAL         15.3830   -45.1910   -18.2900 C.ar         1 LJZ192   0.0000
    13 CAM          6.1910   -35.2520   -11.3750 C.ar         1 LJZ192   0.0000
    14 CAN         13.9640   -44.1030   -16.6440 C.ar         1 LJZ192   0.0000
    15 CAO          6.2970   -32.6610   -10.0660 C.ar         1 LJZ192   0.0000
    16 CAP         16.4680   -44.3610   -17.9040 C.ar         1 LJZ192   0.0000
    17 CAQ         17.6990   -31.8700   -14.2120 C.ar         1 LJZ192   0.0000
    18 CAR         18.5930   -32.9540   -14.3370 C.ar         1 LJZ192   0.0000
    19 CAS         15.8760   -33.4830   -14.1370 C.ar         1 LJZ192   0.0000
    20 CAT         16.7750   -34.5790   -14.2710 C.ar         1 LJZ192   0.0000
    21 CAU         11.5370   -31.0930   -12.2860 C.3          1 LJZ192   0.0000
    22 CAV         18.6160   -39.1500   -15.9700 C.3          1 LJZ192   0.0000
    23 CAW         10.1440   -30.7760   -11.7620 C.3          1 LJZ192   0.0000
    24 CAX         18.6810   -40.5490   -16.5800 C.3          1 LJZ192   0.0000
    25 NAY         14.3640   -31.0190   -13.1770 N.2          1 LJZ192   0.0000
    26 NAZ         18.9300   -36.5640   -15.0800 N.2          1 LJZ192   0.0000
    27 NBA         13.3780   -30.1280   -13.4340 N.am         1 LJZ192   0.0000
    28 NBB         20.0550   -37.3360   -15.2370 N.am         1 LJZ192   0.0000
    29 NBC          8.0020   -31.8220   -11.6040 N.am         1 LJZ192   0.0000
    30 NBD         17.4370   -42.5790   -16.5190 N.am         1 LJZ192   0.0000
    31 CBE         12.3600   -29.8490   -12.5990 C.2          1 LJZ192   0.0000
    32 CBF         20.0400   -38.5630   -15.8160 C.2          1 LJZ192   0.0000
    33 CBG          9.3210   -32.0490   -11.5240 C.2          1 LJZ192   0.0000
    34 CBH         17.3120   -41.2280   -16.6510 C.2          1 LJZ192   0.0000
    35 CBI         16.3500   -32.1340   -14.1030 C.ar         1 LJZ192   0.0000
    36 CBJ         18.1280   -34.3030   -14.3720 C.ar         1 LJZ192   0.0000
    37 CBK          7.0770   -34.2380   -11.8390 C.ar         1 LJZ192   0.0000
    38 CBL         15.0330   -43.2800   -16.2620 C.ar         1 LJZ192   0.0000
    39 CBM          7.1190   -32.8990   -11.1590 C.ar         1 LJZ192   0.0000
    40 CBN         16.3030   -43.4150   -16.8960 C.ar         1 LJZ192   0.0000
    41 HAG         15.5514   -30.1572   -14.5218 H            1 LJZ192   0.0000
    42 HAH         20.0526   -35.2512   -14.1004 H            1 LJZ192   0.0000
    43 HAI          4.7278   -35.6979    -9.9165 H            1 LJZ192   0.0000
    44 HAJ         13.3884   -45.6565   -17.9387 H            1 LJZ192   0.0000
    45 HAK          4.8139   -33.5194    -8.8057 H            1 LJZ192   0.0000
    46 HAL         15.5082   -45.8689   -19.0145 H            1 LJZ192   0.0000
    47 HAM          6.1577   -36.1402   -11.8333 H            1 LJZ192   0.0000
    48 HAN         13.0746   -44.0103   -16.1963 H            1 LJZ192   0.0000
    49 HAO          6.3224   -31.7741    -9.6048 H            1 LJZ192   0.0000
    50 HAP         17.3540   -44.4562   -18.3578 H            1 LJZ192   0.0000
    51 HAQ         18.0368   -30.9288   -14.2026 H            1 LJZ192   0.0000
    52 HAR         19.5744   -32.7733   -14.4025 H            1 LJZ192   0.0000
    53 HAS         14.8944   -33.6598   -14.0653 H            1 LJZ192   0.0000
    54 HAT         16.4390   -35.5206   -14.2916 H            1 LJZ192   0.0000
    55 HAU1        11.4462   -31.6326   -13.1230 H            1 LJZ192   0.0000
    56 HAU2        12.0219   -31.6289   -11.5949 H            1 LJZ192   0.0000
    57 HAV1        18.1819   -39.2023   -15.0706 H            1 LJZ192   0.0000
    58 HAV2        18.0769   -38.5551   -16.5662 H            1 LJZ192   0.0000
    59 HAW1         9.6691   -30.2039   -12.4307 H            1 LJZ192   0.0000
    60 HAW2        10.2284   -30.2790   -10.8984 H            1 LJZ192   0.0000
    61 HAX1        19.2891   -41.1133   -16.0216 H            1 LJZ192   0.0000
    62 HAX2        19.0505   -40.4769   -17.5064 H            1 LJZ192   0.0000
    63 HBA         13.4081   -29.6419   -14.3074 H            1 LJZ192   0.0000
    64 HBB         20.9282   -36.9761   -14.9084 H            1 LJZ192   0.0000
    65 HBC          7.6394   -30.9572   -11.9515 H            1 LJZ192   0.0000
    66 HBD         18.2827   -42.9855   -16.1733 H            1 LJZ192   0.0000
@<TRIPOS>BOND
     1    1   31       2
     2    2   32       2
     3    3   33       2
     4    4   34       2
     5    5   37       1
     6    6   38       1
     7    7   25       2
     8    7   35       1
     9    8   26       2
    10    8   36       1
    11    9   11      ar
    12    9   13      ar
    13   10   12      ar
    14   10   14      ar
    15   11   15      ar
    16   12   16      ar
    17   13   37      ar
    18   14   38      ar
    19   15   39      ar
    20   16   40      ar
    21   17   18      ar
    22   17   35      ar
    23   18   36      ar
    24   19   20      ar
    25   19   35      ar
    26   20   36      ar
    27   21   23       1
    28   21   31       1
    29   22   24       1
    30   22   32       1
    31   23   33       1
    32   24   34       1
    33   25   27       1
    34   26   28       1
    35   27   31      am
    36   28   32      am
    37   29   33      am
    38   29   39       1
    39   30   34      am
    40   30   40       1
    41   37   39      ar
    42   38   40      ar
    43    7   41       1
    44    8   42       1
    45    9   43       1
    46   10   44       1
    47   11   45       1
    48   12   46       1
    49   13   47       1
    50   14   48       1
    51   15   49       1
    52   16   50       1
    53   17   51       1
    54   18   52       1
    55   19   53       1
    56   20   54       1
    57   21   55       1
    58   21   56       1
    59   22   57       1
    60   22   58       1
    61   23   59       1
    62   23   60       1
    63   24   61       1
    64   24   62       1
    65   27   63       1
    66   28   64       1
    67   29   65       1
    68   30   66       1
@<TRIPOS>SUBSTRUCTURE
     1 LJZ192      1 GROUP             4 A     LJZ     0 **** LJZ A 192
