@<TRIPOS>MOLECULE
4fnd_3H9_1_ligand
   98   100     1     0     0
SMALL
NO_CHARGES


@<TRIPOS>ATOM
     1 C1          15.5600   -11.6940    11.3060 C.2          1 3H9301   0.0000
     2 O1          15.0280   -10.4870    11.8020 O.2          1 3H9301   0.0000
     3 C2          17.0560   -11.5770    11.1090 C.3          1 3H9301   0.0000
     4 C3          17.7040   -11.8150     9.7660 C.3          1 3H9301   0.0000
     5 O3          18.3090   -13.0680     9.7060 O.3          1 3H9301   0.0000
     6 C4          16.7040   -11.7010     8.6340 C.3          1 3H9301   0.0000
     7 C5          16.5850   -12.8580     7.6640 C.3          1 3H9301   0.0000
     8 C6          15.1840   -13.2420     7.2110 C.3          1 3H9301   0.0000
     9 N1A         11.6820    -5.4240    15.9260 N.ar         1 3H9301   0.0000
    10 O1A          9.0480    -7.6350    25.5420 O.co2        1 3H9301   0.0000
    11 P1A         10.2730    -7.5920    24.6520 P.3          1 3H9301   0.0000
    12 C1B          9.5940    -5.0300    20.4790 C.3          1 3H9301   0.0000
    13 S1P         15.0890   -13.0220    12.4250 S.3          1 3H9301   0.0000
    14 C2A         10.7170    -4.6010    16.3820 C.ar         1 3H9301   0.0000
    15 O2A         10.6150    -8.9830    24.1530 O.co2        1 3H9301  -1.0000
    16 P2A         12.6020    -7.7270    26.2940 P.3          1 3H9301   0.0000
    17 C2B          8.4340    -5.7580    21.0480 C.3          1 3H9301   0.0000
    18 O2B          7.3990    -5.8530    20.1050 O.3          1 3H9301   0.0000
    19 C2P         15.1840   -12.5090    14.1290 C.3          1 3H9301   0.0000
    20 N3A         10.2800    -4.6440    17.6520 N.ar         1 3H9301   0.0000
    21 O3A         11.4810    -6.8950    25.4810 O.3          1 3H9301   0.0000
    22 C3B          8.0460    -4.9600    22.1820 C.3          1 3H9301   0.0000
    23 O3B          7.2390    -3.9170    21.7510 O.3          1 3H9301   0.0000
    24 P3B          6.0450    -3.4190    22.5920 P.3          1 3H9301   0.0000
    25 C3P         13.9150   -11.9410    14.7360 C.3          1 3H9301   0.0000
    26 C4A         10.8090    -5.5350    18.5040 C.ar         1 3H9301   0.0000
    27 O4A         13.5070    -6.7140    26.9620 O.co2        1 3H9301   0.0000
    28 C4B          9.3330    -4.3840    22.6830 C.3          1 3H9301   0.0000
    29 O4B         10.1630    -4.2450    21.5910 O.3          1 3H9301   0.0000
    30 N4P         13.9450   -11.3750    16.1000 N.am         1 3H9301   0.0000
    31 C5A         11.8150    -6.4010    18.0820 C.ar         1 3H9301   0.0000
    32 O5A         12.0030    -8.6930    27.2570 O.co2        1 3H9301  -1.0000
    33 C5B          9.9780    -5.2580    23.6720 C.3          1 3H9301   0.0000
    34 O5B          9.9540    -6.6490    23.4620 O.3          1 3H9301   0.0000
    35 C5P         13.2280   -12.0790    17.1790 C.2          1 3H9301   0.0000
    36 O5P         12.6110   -13.1420    16.9610 O.2          1 3H9301   0.0000
    37 C6A         12.2430    -6.3240    16.7550 C.ar         1 3H9301   0.0000
    38 N6A         13.3120    -7.2280    16.2820 N.pl3        1 3H9301   0.0000
    39 O6A         13.4910    -8.4940    25.2550 O.3          1 3H9301   0.0000
    40 C6P         13.2210   -11.5490    18.5710 C.3          1 3H9301   0.0000
    41 N7A         12.1700    -7.1750    19.1380 N.2          1 3H9301   0.0000
    42 O7A          5.6280    -4.5340    23.5080 O.co2        1 3H9301   0.0000
    43 C7P         13.9760   -10.2570    18.7990 C.3          1 3H9301   0.0000
    44 C8A         11.4220    -6.8240    20.1940 C.2          1 3H9301   0.0000
    45 O8A          6.5240    -2.2860    23.4530 O.co2        1 3H9301  -1.0000
    46 N8P         13.6270    -9.6490    20.0310 N.am         1 3H9301   0.0000
    47 N9A         10.6100    -5.8370    19.7990 N.pl3        1 3H9301   0.0000
    48 O9A          4.8950    -2.9780    21.6970 O.co2        1 3H9301  -1.0000
    49 C9P         14.0140   -10.2530    21.2720 C.2          1 3H9301   0.0000
    50 O9P         14.6570   -11.2950    21.3150 O.2          1 3H9301   0.0000
    51 CAP         13.6230    -9.5690    22.5770 C.3          1 3H9301   0.0000
    52 OAP         12.5000    -8.7490    22.3470 O.3          1 3H9301   0.0000
    53 CBP         14.7380    -8.7410    23.2030 C.3          1 3H9301   0.0000
    54 CCP         14.1060    -7.8290    24.2480 C.3          1 3H9301   0.0000
    55 CDP         15.4070    -7.9560    22.1390 C.3          1 3H9301   0.0000
    56 CEP         15.7370    -9.6310    23.8870 C.3          1 3H9301   0.0000
    57 H1          17.4741   -12.2288    11.7417 H            1 3H9301   0.0000
    58 H2          17.3025   -10.6460    11.3784 H            1 3H9301   0.0000
    59 H3          18.4100   -11.1197     9.6314 H            1 3H9301   0.0000
    60 H4          18.6189   -13.3326    10.6192 H            1 3H9301   0.0000
    61 H5          16.9507   -10.8916     8.1010 H            1 3H9301   0.0000
    62 H6          15.8032   -11.5665     9.0468 H            1 3H9301   0.0000
    63 H7          16.9907   -13.6606     8.1013 H            1 3H9301   0.0000
    64 H8          17.1114   -12.6216     6.8473 H            1 3H9301   0.0000
    65 H9          15.2384   -14.0135     6.5771 H            1 3H9301   0.0000
    66 H10         14.6361   -13.5019     8.0061 H            1 3H9301   0.0000
    67 H11         14.7568   -12.4630     6.7521 H            1 3H9301   0.0000
    68 H1B          9.2359    -4.3790    19.8097 H            1 3H9301   0.0000
    69 H2A         10.3126    -3.9360    15.7541 H            1 3H9301   0.0000
    70 H2B          8.7126    -6.6705    21.3475 H            1 3H9301   0.0000
    71 H15          7.5116    -6.6901    19.5697 H            1 3H9301   0.0000
    72 H2P1        15.8934   -11.8074    14.1961 H            1 3H9301   0.0000
    73 H2P2        15.4505   -13.3055    14.6718 H            1 3H9301   0.0000
    74 H3B          7.5923    -5.5114    22.8821 H            1 3H9301   0.0000
    75 H3P1        13.2414   -12.6800    14.7436 H            1 3H9301   0.0000
    76 H3P2        13.6032   -11.2121    14.1265 H            1 3H9301   0.0000
    77 H4B          9.1622    -3.4867    23.0901 H            1 3H9301   0.0000
    78 H4P         14.4432   -10.5287    16.2885 H            1 3H9301   0.0000
    79 H5B1         9.5340    -5.0854    24.5513 H            1 3H9301   0.0000
    80 H5B2        10.9385    -4.9848    23.7242 H            1 3H9301   0.0000
    81 H6A1        13.7195    -7.8917    16.9093 H            1 3H9301   0.0000
    82 H6A2        13.6279    -7.1761    15.3346 H            1 3H9301   0.0000
    83 H6P1        13.6231   -12.2460    19.1647 H            1 3H9301   0.0000
    84 H6P2        12.2685   -11.3961    18.8343 H            1 3H9301   0.0000
    85 H7P1        13.7642    -9.6235    18.0548 H            1 3H9301   0.0000
    86 H7P2        14.9568   -10.4522    18.8016 H            1 3H9301   0.0000
    87 H8A         11.4635    -7.2261    21.1087 H            1 3H9301   0.0000
    88 H8P         13.1081    -8.7942    20.0344 H            1 3H9301   0.0000
    89 HAP         13.3596   -10.2780    23.2311 H            1 3H9301   0.0000
    90 H34         11.7426    -9.0511    22.9258 H            1 3H9301   0.0000
    91 HCP1        14.8245    -7.2555    24.6417 H            1 3H9301   0.0000
    92 HCP2        13.4292    -7.2501    23.7931 H            1 3H9301   0.0000
    93 HDP1        16.1413    -7.4085    22.5404 H            1 3H9301   0.0000
    94 HDP2        15.7901    -8.5784    21.4565 H            1 3H9301   0.0000
    95 HDP3        14.7410    -7.3513    21.7021 H            1 3H9301   0.0000
    96 HEP1        16.4603    -9.0712    24.2914 H            1 3H9301   0.0000
    97 HEP2        15.2797   -10.1547    24.6057 H            1 3H9301   0.0000
    98 HEP3        16.1359   -10.2594    23.2191 H            1 3H9301   0.0000
@<TRIPOS>BOND
     1    1    2       2
     2    1    3       1
     3    1   13       1
     4    3    4       1
     5    4    5       1
     6    4    6       1
     7    6    7       1
     8    7    8       1
     9    9   14      ar
    10    9   37      ar
    11   10   11      ar
    12   11   15      ar
    13   11   21       1
    14   11   34       1
    15   12   17       1
    16   12   29       1
    17   12   47       1
    18   13   19       1
    19   14   20      ar
    20   16   21       1
    21   16   27      ar
    22   16   32      ar
    23   16   39       1
    24   17   18       1
    25   17   22       1
    26   19   25       1
    27   20   26      ar
    28   22   23       1
    29   22   28       1
    30   23   24       1
    31   24   42      ar
    32   24   45      ar
    33   24   48      ar
    34   25   30       1
    35   26   31      ar
    36   26   47       1
    37   28   29       1
    38   28   33       1
    39   30   35      am
    40   31   37      ar
    41   31   41       1
    42   33   34       1
    43   35   36       2
    44   35   40       1
    45   37   38       1
    46   39   54       1
    47   40   43       1
    48   41   44       2
    49   43   46       1
    50   44   47       1
    51   46   49      am
    52   49   50       2
    53   49   51       1
    54   51   52       1
    55   51   53       1
    56   53   54       1
    57   53   55       1
    58   53   56       1
    59    3   57       1
    60    3   58       1
    61    4   59       1
    62    5   60       1
    63    6   61       1
    64    6   62       1
    65    7   63       1
    66    7   64       1
    67    8   65       1
    68    8   66       1
    69    8   67       1
    70   56   98       1
    71   12   68       1
    72   14   69       1
    73   17   70       1
    74   18   71       1
    75   19   72       1
    76   19   73       1
    77   22   74       1
    78   25   75       1
    79   25   76       1
    80   56   97       1
    81   28   77       1
    82   30   78       1
    83   33   79       1
    84   33   80       1
    85   38   81       1
    86   38   82       1
    87   40   83       1
    88   40   84       1
    89   56   96       1
    90   43   85       1
    91   43   86       1
    92   44   87       1
    93   55   95       1
    94   46   88       1
    95   51   89       1
    96   52   90       1
    97   54   91       1
    98   54   92       1
    99   55   93       1
   100   55   94       1
@<TRIPOS>SUBSTRUCTURE
     1 3H9301      1 GROUP             4 A     3H9     0 **** 3H9 A 301
