@<TRIPOS>MOLECULE
3k2b_NAD_7_ligand
   70    74     1     0     0
SMALL
NO_CHARGES


@<TRIPOS>ATOM
     1 PA          45.4030   115.8320    81.1360 P.3          1 NAD335   0.0000
     2 O1A         45.4300   116.9500    80.1440 O.co2        1 NAD335   0.0000
     3 O2A         46.7750   115.7990    81.8020 O.co2        1 NAD335  -1.0000
     4 O5B         45.2020   114.4250    80.4740 O.3          1 NAD335   0.0000
     5 C5B         44.5900   114.2590    79.0940 C.3          1 NAD335   0.0000
     6 C4B         45.5580   113.2820    78.4570 C.3          1 NAD335   0.0000
     7 O4B         44.9160   112.5690    77.3560 O.3          1 NAD335   0.0000
     8 C3B         46.8420   113.8110    77.8950 C.3          1 NAD335   0.0000
     9 O3B         47.9670   113.0310    78.2620 O.3          1 NAD335   0.0000
    10 C2B         46.6420   113.8420    76.3860 C.3          1 NAD335   0.0000
    11 O2B         47.8790   113.7790    75.6540 O.3          1 NAD335   0.0000
    12 C1B         45.7630   112.6340    76.1860 C.3          1 NAD335   0.0000
    13 N9A         44.8000   112.6780    75.0280 N.pl3        1 NAD335   0.0000
    14 C8A         44.0040   113.7050    74.5870 C.2          1 NAD335   0.0000
    15 N7A         43.2870   113.3450    73.5230 N.2          1 NAD335   0.0000
    16 C5A         43.6230   112.0460    73.2610 C.ar         1 NAD335   0.0000
    17 C6A         43.2040   111.0950    72.2580 C.ar         1 NAD335   0.0000
    18 N6A         42.3110   111.3550    71.2990 N.pl3        1 NAD335   0.0000
    19 N1A         43.7690   109.8500    72.3080 N.ar         1 NAD335   0.0000
    20 C2A         44.6880   109.5300    73.2670 C.ar         1 NAD335   0.0000
    21 N3A         45.1430   110.3360    74.2390 N.ar         1 NAD335   0.0000
    22 C4A         44.5590   111.5960    74.1750 C.ar         1 NAD335   0.0000
    23 O3          44.2080   115.8880    82.1220 O.3          1 NAD335   0.0000
    24 PN          43.6690   115.1080    83.3430 P.3          1 NAD335   0.0000
    25 O1N         43.9250   116.0110    84.4700 O.co2        1 NAD335   0.0000
    26 O2N         44.3110   113.7940    83.4130 O.co2        1 NAD335  -1.0000
    27 O5D         42.0770   115.0430    83.1900 O.3          1 NAD335   0.0000
    28 C5D         41.5420   114.2050    82.1400 C.3          1 NAD335   0.0000
    29 C4D         40.0810   113.9920    82.4910 C.3          1 NAD335   0.0000
    30 O4D         39.9140   113.6570    83.9050 O.3          1 NAD335   0.0000
    31 C3D         39.1770   115.2450    82.2500 C.3          1 NAD335   0.0000
    32 O3D         37.9260   114.6760    81.7280 O.3          1 NAD335   0.0000
    33 C2D         38.9750   115.7880    83.6870 C.3          1 NAD335   0.0000
    34 O2D         37.7140   116.4280    83.8530 O.3          1 NAD335   0.0000
    35 C1D         39.0310   114.5470    84.5690 C.3          1 NAD335   0.0000
    36 N1N         39.5600   114.7550    85.9670 N.ar         1 NAD335   1.0000
    37 C2N         40.7320   115.4870    86.1510 C.ar         1 NAD335   0.0000
    38 C3N         41.1820   115.6510    87.4630 C.ar         1 NAD335   0.0000
    39 C7N         42.4610   116.4220    87.9640 C.2          1 NAD335   0.0000
    40 O7N         42.6380   116.5010    89.2020 O.2          1 NAD335   0.0000
    41 N7N         43.3010   116.9620    87.1440 N.am         1 NAD335   0.0000
    42 C4N         40.4650   115.0870    88.5710 C.ar         1 NAD335   0.0000
    43 C5N         39.2830   114.3590    88.2750 C.ar         1 NAD335   0.0000
    44 C6N         38.7630   114.1460    87.0000 C.ar         1 NAD335   0.0000
    45 H5B1        44.5654   115.1266    78.5974 H            1 NAD335   0.0000
    46 H5B2        43.6667   113.8785    79.1461 H            1 NAD335   0.0000
    47 H4B         45.7953   112.6033    79.1520 H            1 NAD335   0.0000
    48 H3B         46.9768   114.7463    78.2222 H            1 NAD335   0.0000
    49 H5          47.8490   112.0968    77.9253 H            1 NAD335   0.0000
    50 H2B         46.1411   114.6687    76.1298 H            1 NAD335   0.0000
    51 H7          48.3571   112.9302    75.8798 H            1 NAD335   0.0000
    52 H1B         46.3263   111.8098    76.1282 H            1 NAD335   0.0000
    53 H8A         43.9666   114.6100    75.0108 H            1 NAD335   0.0000
    54 H6A1        42.0681   110.6464    70.6365 H            1 NAD335   0.0000
    55 H6A2        41.8854   112.2582    71.2436 H            1 NAD335   0.0000
    56 H2A         45.0590   108.6017    73.2422 H            1 NAD335   0.0000
    57 H5D1        42.0252   113.3299    82.1117 H            1 NAD335   0.0000
    58 H5D2        41.6251   114.6605    81.2536 H            1 NAD335   0.0000
    59 H4D         39.7287   113.2349    81.9409 H            1 NAD335   0.0000
    60 H3D         39.5909   115.9141    81.6327 H            1 NAD335   0.0000
    61 H17         37.2767   115.4133    81.5416 H            1 NAD335   0.0000
    62 H2D         39.7155   116.4159    83.9265 H            1 NAD335   0.0000
    63 H19         37.8023   117.4000    83.6351 H            1 NAD335   0.0000
    64 H1D         38.1212   114.1348    84.6178 H            1 NAD335   0.0000
    65 H2N         41.2294   115.8780    85.3766 H            1 NAD335   0.0000
    66 H7N1        44.1032   117.4445    87.4956 H            1 NAD335   0.0000
    67 H7N2        43.1489   116.8974    86.1578 H            1 NAD335   0.0000
    68 H4N         40.7846   115.2020    89.5116 H            1 NAD335   0.0000
    69 H5N         38.7816   113.9662    89.0459 H            1 NAD335   0.0000
    70 H6N         37.9272   113.6267    86.8218 H            1 NAD335   0.0000
@<TRIPOS>BOND
     1    1    2      ar
     2    1    3      ar
     3    1    4       1
     4    1   23       1
     5    4    5       1
     6    5    6       1
     7    6    7       1
     8    6    8       1
     9    7   12       1
    10    8    9       1
    11    8   10       1
    12   10   11       1
    13   10   12       1
    14   12   13       1
    15   13   14       1
    16   13   22       1
    17   14   15       2
    18   15   16       1
    19   16   17      ar
    20   16   22      ar
    21   17   18       1
    22   17   19      ar
    23   19   20      ar
    24   20   21      ar
    25   21   22      ar
    26   23   24       1
    27   24   25      ar
    28   24   26      ar
    29   24   27       1
    30   27   28       1
    31   28   29       1
    32   29   30       1
    33   29   31       1
    34   30   35       1
    35   31   32       1
    36   31   33       1
    37   33   34       1
    38   33   35       1
    39   35   36       1
    40   36   37      ar
    41   36   44      ar
    42   37   38      ar
    43   38   39       1
    44   38   42      ar
    45   39   40       2
    46   39   41      am
    47   42   43      ar
    48   43   44      ar
    49   44   70       1
    50    5   45       1
    51    5   46       1
    52    6   47       1
    53    8   48       1
    54    9   49       1
    55   10   50       1
    56   11   51       1
    57   12   52       1
    58   14   53       1
    59   18   54       1
    60   18   55       1
    61   20   56       1
    62   43   69       1
    63   28   57       1
    64   28   58       1
    65   29   59       1
    66   31   60       1
    67   32   61       1
    68   33   62       1
    69   34   63       1
    70   35   64       1
    71   37   65       1
    72   41   66       1
    73   41   67       1
    74   42   68       1
@<TRIPOS>SUBSTRUCTURE
     1 NAD335      1 GROUP             4 G     NAD     0 **** NAD G 335
