@<TRIPOS>MOLECULE
3tvu_B37_2_ligand
   65    70     1     0     0
SMALL
NO_CHARGES


@<TRIPOS>ATOM
     1 C4          36.0080   -37.8320    59.1840 C.ar         1 B372242   0.0000
     2 C6          34.2150   -38.4900    57.9110 C.ar         1 B372242   0.0000
     3 C10         37.0370   -36.3340    61.3030 C.ar         1 B372242   0.0000
     4 C20         37.5590   -35.5170    62.4350 C.3          1 B372242   0.0000
     5 C21         38.2070   -36.3700    63.5020 C.3          1 B372242   0.0000
     6 C24         37.1900   -37.3090    64.1200 C.3          1 B372242   0.0000
     7 C28         38.7550   -35.4380    64.5600 C.3          1 B372242   0.0000
     8 C1          33.3330   -37.7060    58.6310 C.ar         1 B372242   0.0000
     9 C2          33.8280   -36.9650    59.6860 C.ar         1 B372242   0.0000
    10 C3          35.1810   -37.0270    59.9580 C.ar         1 B372242   0.0000
    11 N5          35.5320   -38.5740    58.1700 N.ar         1 B372242   0.0000
    12 C9          35.6930   -36.2880    61.0020 C.ar         1 B372242   0.0000
    13 C11         37.8760   -37.1200    60.5400 C.ar         1 B372242   0.0000
    14 C12         37.3560   -37.8550    59.4970 C.ar         1 B372242   0.0000
    15 C16         33.7040   -39.2770    56.7520 C.3          1 B372242   0.0000
    16 C25         37.7250   -38.0540    65.3280 C.3          1 B372242   0.0000
    17 N26         38.3700   -37.1460    66.2470 N.am         1 B372242   0.0000
    18 C27         39.3470   -36.2280    65.7060 C.3          1 B372242   0.0000
    19 C38         37.8820   -36.8910    67.5150 C.2          1 B372242   0.0000
    20 C39         36.6760   -37.6010    67.9750 C.ar         1 B372242   0.0000
    21 C40         36.7420   -38.7880    68.6930 C.ar         1 B372242   0.0000
    22 C41         35.5500   -39.3470    69.1370 C.ar         1 B372242   0.0000
    23 N42         34.3550   -38.7770    68.8920 N.ar         1 B372242   0.0000
    24 C43         34.3300   -37.6290    68.1930 C.ar         1 B372242   0.0000
    25 C44         35.4620   -36.9930    67.7320 C.ar         1 B372242   0.0000
    26 C46         37.9490   -39.4030    68.9680 C.ar         1 B372242   0.0000
    27 C47         37.9930   -40.5790    69.6890 C.ar         1 B372242   0.0000
    28 C48         36.8190   -41.1500    70.1270 C.ar         1 B372242   0.0000
    29 C49         35.6200   -40.5280    69.8510 C.ar         1 B372242   0.0000
    30 C54         33.0300   -37.0550    67.9630 C.ar         1 B372242   0.0000
    31 C55         32.9000   -35.7050    67.6960 C.ar         1 B372242   0.0000
    32 C56         31.6600   -35.1410    67.4790 C.ar         1 B372242   0.0000
    33 C57         30.5330   -35.9350    67.5270 C.ar         1 B372242   0.0000
    34 C58         30.6460   -37.2830    67.7970 C.ar         1 B372242   0.0000
    35 C59         31.8910   -37.8370    68.0140 C.ar         1 B372242   0.0000
    36 O65         38.3610   -36.0820    68.2940 O.2          1 B372242   0.0000
    37 H1          36.7998   -35.0108    62.8441 H            1 B372242   0.0000
    38 H2          38.2372   -34.8727    62.0816 H            1 B372242   0.0000
    39 H3          38.9542   -36.9001    63.1011 H            1 B372242   0.0000
    40 H4          36.9141   -37.9781    63.4299 H            1 B372242   0.0000
    41 H5          36.3938   -36.7742    64.4029 H            1 B372242   0.0000
    42 H6          38.0150   -34.8610    64.9056 H            1 B372242   0.0000
    43 H7          39.4655   -34.8622    64.1554 H            1 B372242   0.0000
    44 H8          32.3619   -37.6762    58.3941 H            1 B372242   0.0000
    45 H9          33.2206   -36.3963    60.2406 H            1 B372242   0.0000
    46 H10         35.0832   -35.7124    61.5468 H            1 B372242   0.0000
    47 H11         38.8546   -37.1560    60.7426 H            1 B372242   0.0000
    48 H12         37.9712   -38.4223    58.9496 H            1 B372242   0.0000
    49 H13         34.4572   -39.7882    56.3382 H            1 B372242   0.0000
    50 H14         33.0011   -39.9151    57.0663 H            1 B372242   0.0000
    51 H15         33.3110   -38.6555    56.0743 H            1 B372242   0.0000
    52 H16         38.3878   -38.7383    65.0239 H            1 B372242   0.0000
    53 H17         36.9666   -38.5089    65.7948 H            1 B372242   0.0000
    54 H18         39.6386   -35.5968    66.4247 H            1 B372242   0.0000
    55 H19         40.1367   -36.7450    65.3758 H            1 B372242   0.0000
    56 H20         35.4056   -36.1241    67.2402 H            1 B372242   0.0000
    57 H21         38.7996   -38.9913    68.6410 H            1 B372242   0.0000
    58 H22         38.8707   -41.0131    69.8918 H            1 B372242   0.0000
    59 H23         36.8360   -42.0079    70.6405 H            1 B372242   0.0000
    60 H24         34.7724   -40.9456    70.1785 H            1 B372242   0.0000
    61 H25         33.7166   -35.1290    67.6596 H            1 B372242   0.0000
    62 H26         31.5786   -34.1628    67.2881 H            1 B372242   0.0000
    63 H27         29.6319   -35.5324    67.3657 H            1 B372242   0.0000
    64 H28         29.8281   -37.8570    67.8354 H            1 B372242   0.0000
    65 H29         31.9703   -38.8144    68.2102 H            1 B372242   0.0000
@<TRIPOS>BOND
     1    1   10      ar
     2    1   11      ar
     3    1   14      ar
     4    2    8      ar
     5    2   11      ar
     6    2   15       1
     7    3    4       1
     8    3   12      ar
     9    3   13      ar
    10    4    5       1
    11    5    6       1
    12    5    7       1
    13    6   16       1
    14    7   18       1
    15    8    9      ar
    16    9   10      ar
    17   10   12      ar
    18   13   14      ar
    19   16   17       1
    20   17   18       1
    21   17   19      am
    22   19   20       1
    23   19   36       2
    24   20   21      ar
    25   20   25      ar
    26   21   22      ar
    27   21   26      ar
    28   22   23      ar
    29   22   29      ar
    30   23   24      ar
    31   24   25      ar
    32   24   30       1
    33   26   27      ar
    34   27   28      ar
    35   28   29      ar
    36   30   31      ar
    37   30   35      ar
    38   31   32      ar
    39   32   33      ar
    40   33   34      ar
    41   34   35      ar
    42    4   37       1
    43    4   38       1
    44    5   39       1
    45    6   40       1
    46    6   41       1
    47    7   42       1
    48    7   43       1
    49    8   44       1
    50    9   45       1
    51   12   46       1
    52   13   47       1
    53   14   48       1
    54   15   49       1
    55   15   50       1
    56   15   51       1
    57   16   52       1
    58   16   53       1
    59   18   54       1
    60   18   55       1
    61   25   56       1
    62   26   57       1
    63   27   58       1
    64   28   59       1
    65   29   60       1
    66   31   61       1
    67   32   62       1
    68   33   63       1
    69   34   64       1
    70   35   65       1
@<TRIPOS>SUBSTRUCTURE
     1 B372242     1 GROUP             4 B     B37     0 **** B37 B2242
