@<TRIPOS>MOLECULE
1ky4_NAD_1_ligand
   70    74     1     0     0
SMALL
NO_CHARGES


@<TRIPOS>ATOM
     1 PA          15.8290    -6.8640    20.9650 P.3          1 NAD432   0.0000
     2 O1A         15.2300    -6.7350    22.3180 O.co2        1 NAD432   0.0000
     3 O2A         16.9420    -5.9010    20.7220 O.co2        1 NAD432  -1.0000
     4 O5B         14.7540    -6.5230    19.8890 O.3          1 NAD432   0.0000
     5 C5B         13.5140    -7.2280    19.7940 C.3          1 NAD432   0.0000
     6 C4B         12.6560    -6.1850    19.1360 C.3          1 NAD432   0.0000
     7 O4B         11.3250    -6.7150    18.9380 O.3          1 NAD432   0.0000
     8 C3B         12.4660    -4.9260    19.9800 C.3          1 NAD432   0.0000
     9 O3B         12.9700    -3.7480    19.3000 O.3          1 NAD432   0.0000
    10 C2B         10.9700    -4.9310    20.2330 C.3          1 NAD432   0.0000
    11 O2B         10.4710    -3.5870    20.2770 O.3          1 NAD432   0.0000
    12 C1B         10.4180    -5.7240    19.0380 C.3          1 NAD432   0.0000
    13 N9A          9.1610    -6.3580    19.3240 N.pl3        1 NAD432   0.0000
    14 C8A          8.7720    -6.9500    20.4990 C.2          1 NAD432   0.0000
    15 N7A          7.5290    -7.4490    20.4500 N.2          1 NAD432   0.0000
    16 C5A          7.1380    -7.1480    19.1520 C.ar         1 NAD432   0.0000
    17 C6A          5.9310    -7.3930    18.4490 C.ar         1 NAD432   0.0000
    18 N6A          4.8810    -8.0120    18.9610 N.pl3        1 NAD432   0.0000
    19 N1A          5.8450    -6.9580    17.1510 N.ar         1 NAD432   0.0000
    20 C2A          6.9240    -6.3160    16.6020 C.ar         1 NAD432   0.0000
    21 N3A          8.0780    -6.0510    17.1900 N.ar         1 NAD432   0.0000
    22 C4A          8.1270    -6.4810    18.4590 C.ar         1 NAD432   0.0000
    23 O3          16.2900    -8.3740    20.7150 O.3          1 NAD432   0.0000
    24 PN          17.5710    -8.7060    19.8370 P.3          1 NAD432   0.0000
    25 O1N         17.6670    -9.1260    18.4270 O.co2        1 NAD432   0.0000
    26 O2N         18.7580    -9.0960    20.6930 O.co2        1 NAD432  -1.0000
    27 O5D         16.8910   -10.1790    19.9970 O.3          1 NAD432   0.0000
    28 C5D         15.6890   -10.6280    19.2550 C.3          1 NAD432   0.0000
    29 C4D         15.3820   -12.0900    19.5940 C.3          1 NAD432   0.0000
    30 O4D         16.2860   -12.9260    18.8180 O.3          1 NAD432   0.0000
    31 C3D         15.5690   -12.5550    21.0370 C.3          1 NAD432   0.0000
    32 O3D         14.5970   -13.5750    21.3290 O.3          1 NAD432   0.0000
    33 C2D         16.9530   -13.1570    21.0190 C.3          1 NAD432   0.0000
    34 O2D         17.1720   -14.0490    22.1210 O.3          1 NAD432   0.0000
    35 C1D         16.9540   -13.8340    19.6850 C.3          1 NAD432   0.0000
    36 N1N         18.2990   -14.1640    19.1660 N.ar         1 NAD432   1.0000
    37 C2N         18.4210   -15.1910    18.2030 C.ar         1 NAD432   0.0000
    38 C3N         19.7150   -15.5820    17.6450 C.ar         1 NAD432   0.0000
    39 C7N         19.7070   -16.6810    16.6390 C.2          1 NAD432   0.0000
    40 O7N         20.8350   -16.9660    16.2180 O.2          1 NAD432   0.0000
    41 N7N         18.5840   -17.3280    16.2050 N.am         1 NAD432   0.0000
    42 C4N         20.9280   -14.8770    18.1040 C.ar         1 NAD432   0.0000
    43 C5N         20.7250   -13.7870    19.1320 C.ar         1 NAD432   0.0000
    44 C6N         19.5070   -13.4970    19.5880 C.ar         1 NAD432   0.0000
    45 H5B1        13.1626    -7.4801    20.6956 H            1 NAD432   0.0000
    46 H5B2        13.5979    -8.0480    19.2278 H            1 NAD432   0.0000
    47 H4B         13.0514    -5.9372    18.2515 H            1 NAD432   0.0000
    48 H3B         12.9477    -5.0362    20.8494 H            1 NAD432   0.0000
    49 H5          12.4805    -3.6266    18.4365 H            1 NAD432   0.0000
    50 H2B         10.7645    -5.4055    21.0889 H            1 NAD432   0.0000
    51 H7          10.1980    -3.3025    19.3580 H            1 NAD432   0.0000
    52 H1B         10.3769    -5.1689    18.2072 H            1 NAD432   0.0000
    53 H8A          9.3560    -7.0037    21.3090 H            1 NAD432   0.0000
    54 H6A1         4.0615    -8.1498    18.4048 H            1 NAD432   0.0000
    55 H6A2         4.9063    -8.3424    19.9045 H            1 NAD432   0.0000
    56 H2A          6.8280    -6.0152    15.6532 H            1 NAD432   0.0000
    57 H5D1        15.8552   -10.5434    18.2725 H            1 NAD432   0.0000
    58 H5D2        14.9088   -10.0574    19.5115 H            1 NAD432   0.0000
    59 H4D         14.4433   -12.2912    19.3140 H            1 NAD432   0.0000
    60 H3D         15.5074   -11.7923    21.6808 H            1 NAD432   0.0000
    61 H17         14.7126   -13.8852    22.2726 H            1 NAD432   0.0000
    62 H2D         17.6391   -12.4296    21.0303 H            1 NAD432   0.0000
    63 H19         17.8210   -14.7600    21.8504 H            1 NAD432   0.0000
    64 H1D         16.4167   -14.6750    19.7487 H            1 NAD432   0.0000
    65 H2N         17.5968   -15.6652    17.8934 H            1 NAD432   0.0000
    66 H7N1        18.6586   -18.0579    15.5255 H            1 NAD432   0.0000
    67 H7N2        17.6878   -17.0715    16.5669 H            1 NAD432   0.0000
    68 H4N         21.8357   -15.1080    17.7537 H            1 NAD432   0.0000
    69 H5N         21.5146   -13.2774    19.4739 H            1 NAD432   0.0000
    70 H6N         19.4246   -12.7685    20.2681 H            1 NAD432   0.0000
@<TRIPOS>BOND
     1    1    2      ar
     2    1    3      ar
     3    1    4       1
     4    1   23       1
     5    4    5       1
     6    5    6       1
     7    6    7       1
     8    6    8       1
     9    7   12       1
    10    8    9       1
    11    8   10       1
    12   10   11       1
    13   10   12       1
    14   12   13       1
    15   13   14       1
    16   13   22       1
    17   14   15       2
    18   15   16       1
    19   16   17      ar
    20   16   22      ar
    21   17   18       1
    22   17   19      ar
    23   19   20      ar
    24   20   21      ar
    25   21   22      ar
    26   23   24       1
    27   24   25      ar
    28   24   26      ar
    29   24   27       1
    30   27   28       1
    31   28   29       1
    32   29   30       1
    33   29   31       1
    34   30   35       1
    35   31   32       1
    36   31   33       1
    37   33   34       1
    38   33   35       1
    39   35   36       1
    40   36   37      ar
    41   36   44      ar
    42   37   38      ar
    43   38   39       1
    44   38   42      ar
    45   39   40       2
    46   39   41      am
    47   42   43      ar
    48   43   44      ar
    49   44   70       1
    50    5   45       1
    51    5   46       1
    52    6   47       1
    53    8   48       1
    54    9   49       1
    55   10   50       1
    56   11   51       1
    57   12   52       1
    58   14   53       1
    59   18   54       1
    60   18   55       1
    61   20   56       1
    62   43   69       1
    63   28   57       1
    64   28   58       1
    65   29   59       1
    66   31   60       1
    67   32   61       1
    68   33   62       1
    69   34   63       1
    70   35   64       1
    71   37   65       1
    72   41   66       1
    73   41   67       1
    74   42   68       1
@<TRIPOS>SUBSTRUCTURE
     1 NAD432      1 GROUP             4 A     NAD     0 **** NAD A 432
