@<TRIPOS>MOLECULE
./coach420/2rjc/ligand.pdb
 23 22 0 0 0
SMALL
GASTEIGER

@<TRIPOS>ATOM
      1  O1        39.0340   23.5450   16.5390 O.3   601  MES601     -0.3508
      2  C2        38.6010   24.3580   17.6060 C.3   601  MES601      0.1595
      3  C3        37.0700   24.3250   17.7880 C.3   601  MES601      0.1047
      4  N4        36.4870   23.0350   17.3620 N.3   601  MES601     -0.2670
      5  C5        37.1530   22.0500   16.5010 C.3   601  MES601      0.1047
      6  C6        38.6790   22.1650   16.6450 C.3   601  MES601      0.1595
      7  C7        35.0430   22.7440   17.6400 C.3   601  MES601      0.0940
      8  C8        34.3080   23.7290   18.5300 C.3   601  MES601      0.1225
      9  S         32.6580   23.2980   18.6030 S.3   601  MES601     -0.1946
     10  O1S       32.1430   23.1760   17.2310 O.3   601  MES601     -0.3074
     11  O2S       32.5590   21.9430   19.1610 O.3   601  MES601     -0.3074
     12  O3S       32.0240   24.2410   19.5340 O.3   601  MES601     -0.3074
     13  C2        34.4940   24.5300   44.5350 C.3   602  MES602      0.0188
     14  C3        33.8180   25.9020   44.7230 C.3   602  MES602      0.0722
     15  N4        33.7880   26.3470   46.1240 N.3   602  MES602     -0.2713
     16  C5        34.1180   25.4990   47.2700 C.3   602  MES602      0.0722
     17  C6        34.8580   24.1960   46.9290 C.3   602  MES602      0.0188
     18  C7        33.3220   27.7290   46.4160 C.3   602  MES602      0.0938
     19  C8        34.5200   28.6980   46.4200 C.3   602  MES602      0.1225
     20  S         34.2970   30.2420   47.0800 S.3   602  MES602     -0.1946
     21  O1S       35.5510   30.4830   47.8540 O.3   602  MES602     -0.3074
     22  O2S       34.0930   31.2420   45.9870 O.3   602  MES602     -0.3074
     23  O3S       33.0990   30.3210   47.9950 O.3   602  MES602     -0.3074
@<TRIPOS>BOND
     1     1     6    1
     2     1     2    1
     3     2     3    1
     4     3     4    1
     5     4     5    1
     6     4     7    1
     7     5     6    1
     8     7     8    1
     9     8     9    1
    10     9    10    1
    11     9    11    1
    12     9    12    1
    13    13    14    1
    14    14    15    1
    15    15    18    1
    16    15    16    1
    17    16    17    1
    18    18    19    1
    19    19    20    1
    20    20    22    1
    21    20    21    1
    22    20    23    1
