@<TRIPOS>MOLECULE
3h7r_NAP_1_ligand
   73    77     1     0     0
SMALL
NO_CHARGES


@<TRIPOS>ATOM
     1 PA          63.0530     3.4500    27.2720 P.3          1 NAP401   0.0000
     2 O1A         62.1250     2.3720    27.6810 O.co2        1 NAP401   0.0000
     3 O2A         64.2270     3.0120    26.4400 O.co2        1 NAP401  -1.0000
     4 O5B         63.4510     4.1790    28.6220 O.3          1 NAP401   0.0000
     5 C5B         63.9750     5.4740    28.5870 C.3          1 NAP401   0.0000
     6 C4B         63.8640     6.0360    29.9860 C.3          1 NAP401   0.0000
     7 O4B         64.6670     5.3390    30.9400 O.3          1 NAP401   0.0000
     8 C3B         64.3390     7.4630    29.8920 C.3          1 NAP401   0.0000
     9 O3B         63.5710     8.2560    30.7690 O.3          1 NAP401   0.0000
    10 C2B         65.7680     7.3160    30.3620 C.3          1 NAP401   0.0000
    11 O2B         66.0840     8.5190    30.9760 O.3          1 NAP401   0.0000
    12 C1B         65.7530     6.1570    31.3570 C.3          1 NAP401   0.0000
    13 N9A         66.9540     5.3090    31.4110 N.pl3        1 NAP401   0.0000
    14 C8A         67.7330     4.8730    30.3430 C.2          1 NAP401   0.0000
    15 N7A         68.7050     4.0790    30.8030 N.2          1 NAP401   0.0000
    16 C5A         68.5850     3.9780    32.1410 C.ar         1 NAP401   0.0000
    17 C6A         69.3540     3.3020    33.0710 C.ar         1 NAP401   0.0000
    18 N6A         70.4150     2.5380    32.7410 N.pl3        1 NAP401   0.0000
    19 N1A         68.9820     3.3920    34.3940 N.ar         1 NAP401   0.0000
    20 C2A         67.8820     4.1620    34.7470 C.ar         1 NAP401   0.0000
    21 N3A         67.1290     4.8460    33.8300 N.ar         1 NAP401   0.0000
    22 C4A         67.4920     4.7520    32.5260 C.ar         1 NAP401   0.0000
    23 O3          62.2280     4.6280    26.5250 O.3          1 NAP401   0.0000
    24 PN          61.5620     4.8920    25.1340 P.3          1 NAP401   0.0000
    25 O1N         62.2030     6.1030    24.5660 O.co2        1 NAP401   0.0000
    26 O2N         60.0740     4.9310    25.3780 O.co2        1 NAP401  -1.0000
    27 O5D         61.8040     3.5940    24.2220 O.3          1 NAP401   0.0000
    28 C5D         63.0590     3.3920    23.5780 C.3          1 NAP401   0.0000
    29 C4D         62.9720     3.6780    22.0970 C.3          1 NAP401   0.0000
    30 O4D         62.0220     2.8610    21.4470 O.3          1 NAP401   0.0000
    31 C3D         62.4940     5.0730    21.7120 C.3          1 NAP401   0.0000
    32 O3D         63.4330     6.0980    21.9650 O.3          1 NAP401   0.0000
    33 C2D         62.1770     4.8920    20.2630 C.3          1 NAP401   0.0000
    34 O2D         63.3810     4.8440    19.5120 O.3          1 NAP401   0.0000
    35 C1D         61.5210     3.5100    20.3120 C.3          1 NAP401   0.0000
    36 N1N         60.0340     3.5630    20.4270 N.ar         1 NAP401   1.0000
    37 C2N         59.2980     3.2540    19.3450 C.ar         1 NAP401   0.0000
    38 C3N         57.9060     3.3000    19.4390 C.ar         1 NAP401   0.0000
    39 C7N         57.1030     2.9140    18.2780 C.2          1 NAP401   0.0000
    40 O7N         55.8150     3.3290    18.2240 O.2          1 NAP401   0.0000
    41 N7N         57.6160     2.1980    17.2940 N.am         1 NAP401   0.0000
    42 C4N         57.2710     3.6750    20.6330 C.ar         1 NAP401   0.0000
    43 C5N         58.0550     3.9680    21.7270 C.ar         1 NAP401   0.0000
    44 C6N         59.4390     3.9080    21.6180 C.ar         1 NAP401   0.0000
    45 P2B         67.3370     9.4120    30.5810 P.3          1 NAP401   0.0000
    46 O1X         67.2990     9.6930    29.1100 O.co2        1 NAP401   0.0000
    47 O2X         67.0490    10.7010    31.3670 O.co2        1 NAP401  -1.0000
    48 O3X         68.5140     8.6510    31.0530 O.co2        1 NAP401  -1.0000
    49 H5B1        63.4523     6.0384    27.9481 H            1 NAP401   0.0000
    50 H5B2        64.9333     5.4488    28.3025 H            1 NAP401   0.0000
    51 H4B         62.9078     6.0201    30.2781 H            1 NAP401   0.0000
    52 H3B         64.2941     7.8043    28.9531 H            1 NAP401   0.0000
    53 H5          63.5018     9.1847    30.4046 H            1 NAP401   0.0000
    54 H2B         66.3832     7.1278    29.5964 H            1 NAP401   0.0000
    55 H1B         65.5623     6.5132    32.2717 H            1 NAP401   0.0000
    56 H8A         67.5884     5.1154    29.3836 H            1 NAP401   0.0000
    57 H6A1        70.9363     2.0710    33.4552 H            1 NAP401   0.0000
    58 H6A2        70.6805     2.4384    31.7820 H            1 NAP401   0.0000
    59 H2A         67.6285     4.2197    35.7126 H            1 NAP401   0.0000
    60 H5D1        63.3429     2.4422    23.7097 H            1 NAP401   0.0000
    61 H5D2        63.7368     4.0024    23.9878 H            1 NAP401   0.0000
    62 H4D         63.8692     3.5195    21.6848 H            1 NAP401   0.0000
    63 H3D         61.6492     5.2759    22.2072 H            1 NAP401   0.0000
    64 H16         63.2956     6.4553    22.8888 H            1 NAP401   0.0000
    65 H2D         61.5504     5.5940    19.9246 H            1 NAP401   0.0000
    66 H18         63.2474     4.2696    18.7044 H            1 NAP401   0.0000
    67 H1D         61.7733     2.9927    19.4943 H            1 NAP401   0.0000
    68 H2N         59.7408     2.9953    18.4865 H            1 NAP401   0.0000
    69 H7N1        57.0482     1.9459    16.5104 H            1 NAP401   0.0000
    70 H7N2        58.5722     1.9080    17.3325 H            1 NAP401   0.0000
    71 H4N         56.2739     3.7282    20.6882 H            1 NAP401   0.0000
    72 H5N         57.6301     4.2227    22.5957 H            1 NAP401   0.0000
    73 H6N         60.0079     4.1177    22.4132 H            1 NAP401   0.0000
@<TRIPOS>BOND
     1    1    2      ar
     2    1    3      ar
     3    1    4       1
     4    1   23       1
     5    4    5       1
     6    5    6       1
     7    6    7       1
     8    6    8       1
     9    7   12       1
    10    8    9       1
    11    8   10       1
    12   10   11       1
    13   10   12       1
    14   11   45       1
    15   12   13       1
    16   13   14       1
    17   13   22       1
    18   14   15       2
    19   15   16       1
    20   16   17      ar
    21   16   22      ar
    22   17   18       1
    23   17   19      ar
    24   19   20      ar
    25   20   21      ar
    26   21   22      ar
    27   23   24       1
    28   24   25      ar
    29   24   26      ar
    30   24   27       1
    31   27   28       1
    32   28   29       1
    33   29   30       1
    34   29   31       1
    35   30   35       1
    36   31   32       1
    37   31   33       1
    38   33   34       1
    39   33   35       1
    40   35   36       1
    41   36   37      ar
    42   36   44      ar
    43   37   38      ar
    44   38   39       1
    45   38   42      ar
    46   39   40       2
    47   39   41      am
    48   42   43      ar
    49   43   44      ar
    50   45   46      ar
    51   45   47      ar
    52   45   48      ar
    53   43   72       1
    54    5   49       1
    55    5   50       1
    56    6   51       1
    57    8   52       1
    58    9   53       1
    59   10   54       1
    60   12   55       1
    61   14   56       1
    62   18   57       1
    63   18   58       1
    64   20   59       1
    65   44   73       1
    66   28   60       1
    67   28   61       1
    68   29   62       1
    69   31   63       1
    70   32   64       1
    71   33   65       1
    72   34   66       1
    73   35   67       1
    74   37   68       1
    75   41   69       1
    76   41   70       1
    77   42   71       1
@<TRIPOS>SUBSTRUCTURE
     1 NAP401      1 GROUP             4 A     NAP     0 **** NAP A 401
