@<TRIPOS>MOLECULE
3mle_ADP_2_ligand
   39    41     1     0     0
SMALL
NO_CHARGES


@<TRIPOS>ATOM
     1 PB           4.5380    -0.4910   -38.7080 P.3          1 ADP225   0.0000
     2 O1B          3.9440     0.2550   -37.4930 O.co2        1 ADP225   0.0000
     3 O2B          5.2580    -1.8040   -38.3350 O.co2        1 ADP225  -1.0000
     4 O3B          3.5920    -0.7720   -39.8400 O.co2        1 ADP225  -1.0000
     5 PA           6.8850    -0.1430   -40.3510 P.3          1 ADP225   0.0000
     6 O1A          6.5230    -1.5400   -40.8690 O.co2        1 ADP225   0.0000
     7 O2A          8.3330     0.1130   -39.8520 O.co2        1 ADP225  -1.0000
     8 O3A          5.7650     0.4120   -39.2770 O.3          1 ADP225   0.0000
     9 O5'          6.4890     0.8400   -41.5810 O.3          1 ADP225   0.0000
    10 C5'          6.6200     2.2650   -41.4940 C.3          1 ADP225   0.0000
    11 C4'          7.3040     2.8050   -42.7480 C.3          1 ADP225   0.0000
    12 O4'          8.0380     3.9620   -42.3500 O.3          1 ADP225   0.0000
    13 C3'          8.3040     1.8200   -43.3740 C.3          1 ADP225   0.0000
    14 O3'          8.3830     1.9100   -44.8130 O.3          1 ADP225   0.0000
    15 C2'          9.6230     2.2010   -42.7340 C.3          1 ADP225   0.0000
    16 O2'         10.7480     1.9120   -43.5800 O.3          1 ADP225   0.0000
    17 C1'          9.4400     3.6990   -42.4950 C.3          1 ADP225   0.0000
    18 N9          10.2000     4.1830   -41.3140 N.pl3        1 ADP225   0.0000
    19 C8           9.9800     3.9360   -39.9970 C.2          1 ADP225   0.0000
    20 N7          10.9130     4.5820   -39.2410 N.2          1 ADP225   0.0000
    21 C5          11.7380     5.2490   -40.0960 C.ar         1 ADP225   0.0000
    22 C6          12.9370     6.1370   -40.0120 C.ar         1 ADP225   0.0000
    23 N6          13.4710     6.4560   -38.8020 N.pl3        1 ADP225   0.0000
    24 N1          13.4800     6.6200   -41.1780 N.ar         1 ADP225   0.0000
    25 C2          12.9790     6.3260   -42.4020 C.ar         1 ADP225   0.0000
    26 N3          11.8940     5.5340   -42.5500 N.ar         1 ADP225   0.0000
    27 C4          11.2550     4.9840   -41.4640 C.ar         1 ADP225   0.0000
    28 H5'1         7.1685     2.4986   -40.6911 H            1 ADP225   0.0000
    29 H5'2         5.7125     2.6763   -41.4088 H            1 ADP225   0.0000
    30 H4'          6.6137     3.0602   -43.4250 H            1 ADP225   0.0000
    31 H3'          8.0624     0.8861   -43.1105 H            1 ADP225   0.0000
    32 H5           9.0484     1.2452   -45.1525 H            1 ADP225   0.0000
    33 H2'          9.7254     1.7275   -41.8592 H            1 ADP225   0.0000
    34 H7          11.0734     0.9844   -43.3966 H            1 ADP225   0.0000
    35 H1'          9.7694     4.1884   -43.3025 H            1 ADP225   0.0000
    36 H9           9.2431     3.3650   -39.6352 H            1 ADP225   0.0000
    37 H10         14.2734     7.0506   -38.7507 H            1 ADP225   0.0000
    38 H11         13.0611     6.0959   -37.9640 H            1 ADP225   0.0000
    39 H12         13.4224     6.7038   -43.2148 H            1 ADP225   0.0000
@<TRIPOS>BOND
     1    1    2      ar
     2    1    3      ar
     3    1    4      ar
     4    1    8       1
     5    5    6      ar
     6    5    7      ar
     7    5    8       1
     8    5    9       1
     9    9   10       1
    10   10   11       1
    11   11   12       1
    12   11   13       1
    13   12   17       1
    14   13   14       1
    15   13   15       1
    16   15   16       1
    17   15   17       1
    18   17   18       1
    19   18   19       1
    20   18   27       1
    21   19   20       2
    22   20   21       1
    23   21   22      ar
    24   21   27      ar
    25   22   23       1
    26   22   24      ar
    27   24   25      ar
    28   25   26      ar
    29   26   27      ar
    30   25   39       1
    31   23   38       1
    32   23   37       1
    33   10   28       1
    34   10   29       1
    35   11   30       1
    36   13   31       1
    37   14   32       1
    38   15   33       1
    39   16   34       1
    40   17   35       1
    41   19   36       1
@<TRIPOS>SUBSTRUCTURE
     1 ADP225      1 GROUP             4 C     ADP     0 **** ADP C 225
