@<TRIPOS>MOLECULE
1dp2_LPB_1_ligand
   25    25     1     0     0
SMALL
NO_CHARGES


@<TRIPOS>ATOM
     1 O1          42.0910    11.3360    36.0580 O.co2        1 LPB900   0.0000
     2 O2          42.0720    12.9790    37.4180 O.co2        1 LPB900  -1.0000
     3 C1          41.7700    12.4800    36.3390 C.2          1 LPB900   0.0000
     4 C2          40.9710    13.2580    35.3040 C.3          1 LPB900   0.0000
     5 C3          41.4630    14.6270    34.8920 C.3          1 LPB900   0.0000
     6 C4          41.0230    15.6440    35.9170 C.3          1 LPB900   0.0000
     7 C5          42.0360    16.7530    35.8630 C.3          1 LPB900   0.0000
     8 C6          42.4540    17.2880    37.2200 C.3          1 LPB900   0.0000
     9 C7          42.6590    16.1710    38.2560 C.3          1 LPB900   0.0000
    10 C8          44.0830    15.9560    38.7530 C.3          1 LPB900   0.0000
    11 S8          45.2810    16.8850    37.7640 S.3          1 LPB900   0.0000
    12 S6          43.9930    18.1940    36.9490 S.3          1 LPB900   0.0000
    13 H1          40.0477    13.3741    35.6702 H            1 LPB900   0.0000
    14 H2          40.9335    12.6967    34.4772 H            1 LPB900   0.0000
    15 H3          41.0801    14.8650    33.9994 H            1 LPB900   0.0000
    16 H4          42.4614    14.6202    34.8353 H            1 LPB900   0.0000
    17 H5          41.0059    15.2333    36.8286 H            1 LPB900   0.0000
    18 H6          40.1134    15.9932    35.6916 H            1 LPB900   0.0000
    19 H7          41.6453    17.5079    35.3362 H            1 LPB900   0.0000
    20 H8          42.8516    16.4090    35.3979 H            1 LPB900   0.0000
    21 H9          41.7548    17.9206    37.5532 H            1 LPB900   0.0000
    22 H10         42.3486    15.3143    37.8441 H            1 LPB900   0.0000
    23 H11         42.0895    16.3848    39.0497 H            1 LPB900   0.0000
    24 H12         44.3024    14.9819    38.6978 H            1 LPB900   0.0000
    25 H13         44.1438    16.2580    39.7044 H            1 LPB900   0.0000
@<TRIPOS>BOND
     1    1    3      ar
     2    2    3      ar
     3    3    4       1
     4    4    5       1
     5    5    6       1
     6    6    7       1
     7    7    8       1
     8    8    9       1
     9    8   12       1
    10    9   10       1
    11   10   11       1
    12   11   12       1
    13   10   25       1
    14    4   13       1
    15    4   14       1
    16    5   15       1
    17    5   16       1
    18    6   17       1
    19    6   18       1
    20    7   19       1
    21    7   20       1
    22    8   21       1
    23    9   22       1
    24    9   23       1
    25   10   24       1
@<TRIPOS>SUBSTRUCTURE
     1 LPB900      1 GROUP             4 A     LPB     0 **** LPB A 900
