@<TRIPOS>MOLECULE
4b95_UCK_1_ligand
   44    46     1     0     0
SMALL
NO_CHARGES


@<TRIPOS>ATOM
     1 O01         -9.5570    31.9900     0.8760 O.3          1 UCK1206   0.0000
     2 C02         -8.2830    31.6980     1.3200 C.3          1 UCK1206   0.0000
     3 C03         -7.8710    32.6030     2.4470 C.3          1 UCK1206   0.0000
     4 C04         -7.2970    33.8240     1.7870 C.3          1 UCK1206   0.0000
     5 C05         -6.0310    34.3370     2.5750 C.2          1 UCK1206   0.0000
     6 N06         -6.2630    35.1040     3.8470 N.am         1 UCK1206   0.0000
     7 C07         -5.2390    35.5550     4.7920 C.3          1 UCK1206   0.0000
     8 C08         -4.9440    34.5940     5.9340 C.ar         1 UCK1206   0.0000
     9 C09         -3.7260    34.6590     6.7020 C.ar         1 UCK1206   0.0000
    10 C10         -3.4710    33.7230     7.6910 C.ar         1 UCK1206   0.0000
    11 C11         -4.4040    32.6920     7.9520 C.ar         1 UCK1206   0.0000
    12 CL1         -4.1490    31.4490     9.1800 Cl           1 UCK1206   0.0000
    13 C13         -5.5990    32.6300     7.1790 C.ar         1 UCK1206   0.0000
    14 C14         -5.8580    33.5670     6.2090 C.ar         1 UCK1206   0.0000
    15 O15         -4.9020    34.0960     2.1390 O.2          1 UCK1206   0.0000
    16 N16         -7.1060    33.4680     0.3920 N.am         1 UCK1206   0.0000
    17 C17         -6.8650    34.4800    -0.7160 C.2          1 UCK1206   0.0000
    18 C18         -6.6840    34.0250    -2.1540 C.ar         1 UCK1206   0.0000
    19 C19         -5.5050    33.2820    -2.5020 C.ar         1 UCK1206   0.0000
    20 CL2         -4.2820    32.9670    -1.3290 Cl           1 UCK1206   0.0000
    21 C21         -5.3450    32.8590    -3.7780 C.ar         1 UCK1206   0.0000
    22 C22         -6.3340    33.1470    -4.7510 C.ar         1 UCK1206   0.0000
    23 C23         -7.4790    33.8670    -4.4060 C.ar         1 UCK1206   0.0000
    24 C24         -7.6530    34.3030    -3.1010 C.ar         1 UCK1206   0.0000
    25 O25         -6.7870    35.6850    -0.4510 O.2          1 UCK1206   0.0000
    26 C26         -7.2950    32.0380     0.2830 C.3          1 UCK1206   0.0000
    27 H1          -9.7427    32.9631     1.0124 H            1 UCK1206   0.0000
    28 H2          -8.2074    30.7370     1.5859 H            1 UCK1206   0.0000
    29 H3          -7.1823    32.1580     3.0194 H            1 UCK1206   0.0000
    30 H4          -8.6626    32.8473     3.0071 H            1 UCK1206   0.0000
    31 H5          -7.9902    34.5437     1.8245 H            1 UCK1206   0.0000
    32 H6          -7.2115    35.3288     4.0702 H            1 UCK1206   0.0000
    33 H7          -5.5431    36.4216     5.1876 H            1 UCK1206   0.0000
    34 H8          -4.3906    35.7004     4.2829 H            1 UCK1206   0.0000
    35 H9          -3.0614    35.3837     6.5199 H            1 UCK1206   0.0000
    36 H10         -2.6252    33.7763     8.2218 H            1 UCK1206   0.0000
    37 H11         -6.2570    31.8955     7.3447 H            1 UCK1206   0.0000
    38 H12         -6.7117    33.5160     5.6908 H            1 UCK1206   0.0000
    39 H13         -4.5278    32.3427    -4.0342 H            1 UCK1206   0.0000
    40 H14         -6.2107    32.8320    -5.6921 H            1 UCK1206   0.0000
    41 H15         -8.1722    34.0680    -5.0982 H            1 UCK1206   0.0000
    42 H16         -8.4735    34.8149    -2.8464 H            1 UCK1206   0.0000
    43 H17         -7.6420    31.7984    -0.6237 H            1 UCK1206   0.0000
    44 H18         -6.4339    31.5571     0.4481 H            1 UCK1206   0.0000
@<TRIPOS>BOND
     1    1    2       1
     2    2    3       1
     3    2   26       1
     4    3    4       1
     5    4    5       1
     6    4   16       1
     7    5    6      am
     8    5   15       2
     9    6    7       1
    10    7    8       1
    11    8    9      ar
    12    8   14      ar
    13    9   10      ar
    14   10   11      ar
    15   11   12       1
    16   11   13      ar
    17   13   14      ar
    18   16   17      am
    19   16   26       1
    20   17   18       1
    21   17   25       2
    22   18   19      ar
    23   18   24      ar
    24   19   20       1
    25   19   21      ar
    26   21   22      ar
    27   22   23      ar
    28   23   24      ar
    29    1   27       1
    30    2   28       1
    31    3   29       1
    32    3   30       1
    33    4   31       1
    34    6   32       1
    35    7   33       1
    36    7   34       1
    37    9   35       1
    38   10   36       1
    39   13   37       1
    40   14   38       1
    41   21   39       1
    42   22   40       1
    43   23   41       1
    44   24   42       1
    45   26   43       1
    46   26   44       1
@<TRIPOS>SUBSTRUCTURE
     1 UCK1206     1 GROUP             4 C     UCK     0 **** UCK C1206
