@<TRIPOS>MOLECULE
3qj4_FAD_2_ligand
   84    89     1     0     0
SMALL
NO_CHARGES


@<TRIPOS>ATOM
     1 PA          26.0400    37.4680    27.1440 P.3          1 FAD401   0.0000
     2 O1A         27.4860    37.1550    27.4500 O.co2        1 FAD401   0.0000
     3 O2A         25.3570    36.9350    25.9040 O.co2        1 FAD401  -1.0000
     4 O5B         25.1250    37.0610    28.4380 O.3          1 FAD401   0.0000
     5 C5B         23.7510    36.7200    28.2540 C.3          1 FAD401   0.0000
     6 C4B         23.4480    35.4830    29.0870 C.3          1 FAD401   0.0000
     7 O4B         21.9880    35.3460    29.2590 O.3          1 FAD401   0.0000
     8 C3B         23.9380    34.1600    28.5060 C.3          1 FAD401   0.0000
     9 O3B         24.7320    33.5430    29.5180 O.3          1 FAD401   0.0000
    10 C2B         22.6560    33.3380    28.2810 C.3          1 FAD401   0.0000
    11 O2B         22.8350    31.9360    28.4730 O.3          1 FAD401   0.0000
    12 C1B         21.7020    33.9370    29.3280 C.3          1 FAD401   0.0000
    13 N9A         20.3090    33.8430    28.9550 N.pl3        1 FAD401   0.0000
    14 C8A         19.7690    34.0750    27.7180 C.2          1 FAD401   0.0000
    15 N7A         18.4760    33.9160    27.6870 N.2          1 FAD401   0.0000
    16 C5A         18.1260    33.5700    28.9960 C.ar         1 FAD401   0.0000
    17 C6A         16.9020    33.2840    29.6630 C.ar         1 FAD401   0.0000
    18 N6A         15.7080    33.2990    29.0120 N.pl3        1 FAD401   0.0000
    19 N1A         16.8990    32.9840    31.0140 N.ar         1 FAD401   0.0000
    20 C2A         18.0700    32.9500    31.6900 C.ar         1 FAD401   0.0000
    21 N3A         19.3030    33.2110    31.1510 N.ar         1 FAD401   0.0000
    22 C4A         19.2690    33.5150    29.8070 C.ar         1 FAD401   0.0000
    23 N1          34.7050    40.9020    23.1750 N.2          1 FAD401   0.0000
    24 C2          35.8950    41.4930    23.4650 C.2          1 FAD401   0.0000
    25 O2          35.9420    42.4480    24.2310 O.2          1 FAD401   0.0000
    26 N3          37.0500    40.9000    23.0230 N.pl3        1 FAD401   0.0000
    27 C4          37.1360    39.8380    22.1460 C.2          1 FAD401   0.0000
    28 O4          38.2090    39.3600    21.7940 O.2          1 FAD401   0.0000
    29 C4X         35.7820    39.2830    21.6930 C.2          1 FAD401   0.0000
    30 N5          35.6880    38.2420    20.8670 N.2          1 FAD401   0.0000
    31 C5X         34.4420    37.5680    20.6710 C.ar         1 FAD401   0.0000
    32 C6          34.4550    36.4370    19.8370 C.ar         1 FAD401   0.0000
    33 C7          33.3160    35.6350    19.7020 C.ar         1 FAD401   0.0000
    34 C7M         33.4320    34.4140    18.8150 C.3          1 FAD401   0.0000
    35 C8          32.0920    36.0200    20.4060 C.ar         1 FAD401   0.0000
    36 C8M         30.8070    35.2590    20.3150 C.3          1 FAD401   0.0000
    37 C9          32.0860    37.1970    21.1850 C.ar         1 FAD401   0.0000
    38 C9A         33.2430    38.0190    21.2970 C.ar         1 FAD401   0.0000
    39 N10         33.3200    39.1800    22.1180 N.pl3        1 FAD401   0.0000
    40 C10         34.5570    39.8500    22.3740 C.2          1 FAD401   0.0000
    41 C1'         32.0750    39.6440    22.7070 C.3          1 FAD401   0.0000
    42 C2'         32.0410    39.6310    24.2010 C.3          1 FAD401   0.0000
    43 O2'         32.2370    38.2530    24.5270 O.3          1 FAD401   0.0000
    44 C3'         30.5800    40.0850    24.4660 C.3          1 FAD401   0.0000
    45 O3'         30.4090    41.4060    23.9130 O.3          1 FAD401   0.0000
    46 C4'         30.1290    40.0040    25.9290 C.3          1 FAD401   0.0000
    47 O4'         30.2000    38.6050    26.2250 O.3          1 FAD401   0.0000
    48 C5'         28.6610    40.4360    26.0390 C.3          1 FAD401   0.0000
    49 O5'         28.0650    39.8450    27.2000 O.3          1 FAD401   0.0000
    50 P           26.5650    40.2400    27.6350 P.3          1 FAD401   0.0000
    51 O1P         26.5230    40.1470    29.1130 O.co2        1 FAD401   0.0000
    52 O2P         26.1390    41.5630    27.0470 O.co2        1 FAD401  -1.0000
    53 O3P         25.8060    39.0240    27.0030 O.3          1 FAD401   0.0000
    54 H5B1        23.5770    36.5278    27.2882 H            1 FAD401   0.0000
    55 H5B2        23.1718    37.4785    28.5525 H            1 FAD401   0.0000
    56 H4B         23.8613    35.6025    29.9897 H            1 FAD401   0.0000
    57 H3B         24.4508    34.2918    27.6577 H            1 FAD401   0.0000
    58 H5          24.1733    33.3904    30.3332 H            1 FAD401   0.0000
    59 H2B         22.3008    33.5106    27.3623 H            1 FAD401   0.0000
    60 H7          23.1391    31.7640    29.4100 H            1 FAD401   0.0000
    61 H1B         21.8698    33.5662    30.2414 H            1 FAD401   0.0000
    62 H8A         20.3113    34.3393    26.9204 H            1 FAD401   0.0000
    63 H6A1        14.8649    33.0935    29.5090 H            1 FAD401   0.0000
    64 H6A2        15.6732    33.5155    28.0363 H            1 FAD401   0.0000
    65 H2A         18.0333    32.7155    32.6614 H            1 FAD401   0.0000
    66 H13         37.9112    41.2724    23.3689 H            1 FAD401   0.0000
    67 H14         35.2872    36.2027    19.3345 H            1 FAD401   0.0000
    68 H7M1        32.5581    33.9280    18.8009 H            1 FAD401   0.0000
    69 H7M2        33.6705    34.6981    17.8863 H            1 FAD401   0.0000
    70 H7M3        34.1440    33.8092    19.1718 H            1 FAD401   0.0000
    71 H8M1        30.1132    35.7078    20.8783 H            1 FAD401   0.0000
    72 H8M2        30.5000    35.2358    19.3636 H            1 FAD401   0.0000
    73 H8M3        30.9489    34.3248    20.6423 H            1 FAD401   0.0000
    74 H21         31.2510    37.4592    21.6687 H            1 FAD401   0.0000
    75 H1'1        31.3367    39.0572    22.3746 H            1 FAD401   0.0000
    76 H1'2        31.9179    40.5830    22.4011 H            1 FAD401   0.0000
    77 H2'         32.7222    40.2344    24.6156 H            1 FAD401   0.0000
    78 H25         31.4487    37.9170    25.0424 H            1 FAD401   0.0000
    79 H3'         29.9861    39.4724    23.9444 H            1 FAD401   0.0000
    80 H27         29.4721    41.7161    24.0742 H            1 FAD401   0.0000
    81 H4'         30.7204    40.5414    26.5303 H            1 FAD401   0.0000
    82 H29         29.2943    38.2739    26.4895 H            1 FAD401   0.0000
    83 H5'1        28.1654    40.1375    25.2234 H            1 FAD401   0.0000
    84 H5'2        28.6130    41.4322    26.1122 H            1 FAD401   0.0000
@<TRIPOS>BOND
     1    1    2      ar
     2    1    3      ar
     3    1    4       1
     4    1   53       1
     5    4    5       1
     6    5    6       1
     7    6    7       1
     8    6    8       1
     9    7   12       1
    10    8    9       1
    11    8   10       1
    12   10   11       1
    13   10   12       1
    14   12   13       1
    15   13   14       1
    16   13   22       1
    17   14   15       2
    18   15   16       1
    19   16   17      ar
    20   16   22      ar
    21   17   18       1
    22   17   19      ar
    23   19   20      ar
    24   20   21      ar
    25   21   22      ar
    26   23   24       1
    27   23   40       2
    28   24   25       2
    29   24   26       1
    30   26   27       1
    31   27   28       2
    32   27   29       1
    33   29   30       2
    34   29   40       1
    35   30   31       1
    36   31   32      ar
    37   31   38      ar
    38   32   33      ar
    39   33   34       1
    40   33   35      ar
    41   35   36       1
    42   35   37      ar
    43   37   38      ar
    44   38   39       1
    45   39   40       1
    46   39   41       1
    47   41   42       1
    48   42   43       1
    49   42   44       1
    50   44   45       1
    51   44   46       1
    52   46   47       1
    53   46   48       1
    54   48   49       1
    55   49   50       1
    56   50   51      ar
    57   50   52      ar
    58   50   53       1
    59   48   84       1
    60    5   54       1
    61    5   55       1
    62    6   56       1
    63    8   57       1
    64    9   58       1
    65   10   59       1
    66   11   60       1
    67   12   61       1
    68   14   62       1
    69   18   63       1
    70   18   64       1
    71   20   65       1
    72   26   66       1
    73   32   67       1
    74   34   68       1
    75   34   69       1
    76   34   70       1
    77   36   71       1
    78   36   72       1
    79   36   73       1
    80   37   74       1
    81   41   75       1
    82   41   76       1
    83   42   77       1
    84   43   78       1
    85   44   79       1
    86   45   80       1
    87   46   81       1
    88   47   82       1
    89   48   83       1
@<TRIPOS>SUBSTRUCTURE
     1 FAD401      1 GROUP             4 B     FAD     0 **** FAD B 401
