@<TRIPOS>MOLECULE
2j2i_LY4_1_ligand
   64    69     1     0     0
SMALL
NO_CHARGES


@<TRIPOS>ATOM
     1 CBD         39.4820    -1.7760    -2.1850 C.3          1 LY41307   0.0000
     2 CBB         39.8820    -0.5500    -1.3140 C.3          1 LY41307   0.0000
     3 NAW         40.2160    -1.0350     0.0250 N.pl3        1 LY41307   0.0000
     4 CAV         41.4520    -0.8920     0.4710 C.2          1 LY41307   0.0000
     5 CAX         39.4810    -1.6790     0.9410 C.ar         1 LY41307   0.0000
     6 CAY         38.1440    -2.0850     0.9720 C.ar         1 LY41307   0.0000
     7 CAZ         37.6190    -2.7500     2.0880 C.ar         1 LY41307   0.0000
     8 CAP         38.4470    -3.0050     3.1720 C.ar         1 LY41307   0.0000
     9 CAO         39.7830    -2.6070     3.1360 C.ar         1 LY41307   0.0000
    10 CAN         40.3040    -1.9490     2.0160 C.ar         1 LY41307   0.0000
    11 CAM         41.5540    -1.4300     1.6900 C.2          1 LY41307   0.0000
    12 CAH         42.7680    -1.4370     2.3840 C.2          1 LY41307   0.0000
    13 CAE         43.0160    -1.4260     3.7620 C.2          1 LY41307   0.0000
    14 OAF         42.1820    -1.3600     4.6650 O.2          1 LY41307   0.0000
    15 NAD         44.3000    -1.4830     4.0100 N.am         1 LY41307   0.0000
    16 CAC         44.9270    -1.5300     2.8610 C.2          1 LY41307   0.0000
    17 OAB         46.1480    -1.5960     2.8010 O.2          1 LY41307   0.0000
    18 CAG         44.0380    -1.5220     1.7820 C.2          1 LY41307   0.0000
    19 CAL         44.3450    -1.6070     0.4060 C.2          1 LY41307   0.0000
    20 CAU         43.6980    -2.4510    -0.4230 C.2          1 LY41307   0.0000
    21 CAK         45.3420    -1.0090    -0.3660 C.ar         1 LY41307   0.0000
    22 CAJ         46.3380    -0.0810    -0.0800 C.ar         1 LY41307   0.0000
    23 CAI         47.1950     0.3710    -1.0810 C.ar         1 LY41307   0.0000
    24 CAQ         47.0720    -0.1240    -2.3750 C.ar         1 LY41307   0.0000
    25 CAR         46.0880    -1.0600    -2.6600 C.ar         1 LY41307   0.0000
    26 CAS         45.2170    -1.5040    -1.6590 C.ar         1 LY41307   0.0000
    27 NAT         44.2090    -2.3790    -1.6710 N.pl3        1 LY41307   0.0000
    28 CBA         43.6440    -3.2130    -2.7510 C.3          1 LY41307   0.0000
    29 CBC         42.8350    -2.4430    -3.7930 C.3          1 LY41307   0.0000
    30 OBE         41.6180    -1.7990    -3.3130 O.3          1 LY41307   0.0000
    31 CBF         40.6500    -2.6440    -2.7140 C.3          1 LY41307   0.0000
    32 CBG         40.1710    -3.7160    -3.7590 C.3          1 LY41307   0.0000
    33 NBH         38.7390    -4.0420    -3.5440 N.4          1 LY41307   1.0000
    34 CBI         38.5660    -4.9020    -2.3450 C.3          1 LY41307   0.0000
    35 CBJ         38.1140    -4.6790    -4.7250 C.3          1 LY41307   0.0000
    36 HBD1        38.9713    -1.4364    -2.9748 H            1 LY41307   0.0000
    37 HBD2        38.8902    -2.3633    -1.6329 H            1 LY41307   0.0000
    38 HBB1        39.1174     0.0924    -1.2611 H            1 LY41307   0.0000
    39 HBB2        40.6748    -0.0922    -1.7165 H            1 LY41307   0.0000
    40 HAV         42.1970    -0.4489    -0.0276 H            1 LY41307   0.0000
    41 HAY         37.5538    -1.8983     0.1867 H            1 LY41307   0.0000
    42 HAZ         36.6611    -3.0368     2.1031 H            1 LY41307   0.0000
    43 HAP         38.0860    -3.4737     3.9782 H            1 LY41307   0.0000
    44 HAO         40.3756    -2.7939     3.9195 H            1 LY41307   0.0000
    45 HAD         44.7260    -1.4895     4.9147 H            1 LY41307   0.0000
    46 HAU         42.9434    -3.0482    -0.1510 H            1 LY41307   0.0000
    47 HAJ         46.4398     0.2649     0.8527 H            1 LY41307   0.0000
    48 HAI         47.8976     1.0504    -0.8695 H            1 LY41307   0.0000
    49 HAQ         47.6889     0.1927    -3.0955 H            1 LY41307   0.0000
    50 HAR         46.0006    -1.4203    -3.5887 H            1 LY41307   0.0000
    51 HBA1        43.0455    -3.8978    -2.3354 H            1 LY41307   0.0000
    52 HBA2        44.3998    -3.6709    -3.2191 H            1 LY41307   0.0000
    53 HBC1        42.5765    -3.0852    -4.5147 H            1 LY41307   0.0000
    54 HBC2        43.4262    -1.7327    -4.1749 H            1 LY41307   0.0000
    55 HBF         41.0727    -3.1172    -1.9410 H            1 LY41307   0.0000
    56 HBG1        40.7177    -4.5466    -3.6535 H            1 LY41307   0.0000
    57 HBG2        40.2914    -3.3527    -4.6829 H            1 LY41307   0.0000
    58 HBI1        37.5955    -5.1084    -2.2201 H            1 LY41307   0.0000
    59 HBI2        39.0746    -5.7539    -2.4696 H            1 LY41307   0.0000
    60 HBI3        38.9114    -4.4226    -1.5383 H            1 LY41307   0.0000
    61 HBJ1        37.1538    -4.8770    -4.5279 H            1 LY41307   0.0000
    62 HBJ2        38.1727    -4.0596    -5.5079 H            1 LY41307   0.0000
    63 HBJ3        38.5933    -5.5307    -4.9371 H            1 LY41307   0.0000
    64 HBH         38.2559    -3.1834    -3.3725 H            1 LY41307   0.0000
@<TRIPOS>BOND
     1    1    2       1
     2    1   31       1
     3    2    3       1
     4    3    4       1
     5    3    5       1
     6    4   11       2
     7    5    6      ar
     8    5   10      ar
     9    6    7      ar
    10    7    8      ar
    11    8    9      ar
    12    9   10      ar
    13   10   11       1
    14   11   12       1
    15   12   13       1
    16   12   18       2
    17   13   14       2
    18   13   15      am
    19   15   16      am
    20   16   17       2
    21   16   18       1
    22   18   19       1
    23   19   20       2
    24   19   21       1
    25   20   27       1
    26   21   22      ar
    27   21   26      ar
    28   22   23      ar
    29   23   24      ar
    30   24   25      ar
    31   25   26      ar
    32   26   27       1
    33   27   28       1
    34   28   29       1
    35   29   30       1
    36   30   31       1
    37   31   32       1
    38   32   33       1
    39   33   34       1
    40   33   35       1
    41    1   36       1
    42    1   37       1
    43    2   38       1
    44    2   39       1
    45    4   40       1
    46    6   41       1
    47    7   42       1
    48    8   43       1
    49    9   44       1
    50   15   45       1
    51   20   46       1
    52   22   47       1
    53   23   48       1
    54   24   49       1
    55   25   50       1
    56   28   51       1
    57   28   52       1
    58   29   53       1
    59   29   54       1
    60   31   55       1
    61   32   56       1
    62   32   57       1
    63   34   58       1
    64   34   59       1
    65   34   60       1
    66   35   61       1
    67   35   62       1
    68   35   63       1
    69   33   64       1
@<TRIPOS>SUBSTRUCTURE
     1 LY41307     1 GROUP             4 B     LY4     0 **** LY4 B1307
