@<TRIPOS>MOLECULE
1qkn_RAL_1_ligand
   62    66     1     0     0
SMALL
NO_CHARGES


@<TRIPOS>ATOM
     1 C1          16.9310    29.5250     8.7290 C.ar         1 RAL600   0.0000
     2 C2          15.8390    30.1280     8.1030 C.ar         1 RAL600   0.0000
     3 C3          15.1550    31.1320     8.7770 C.ar         1 RAL600   0.0000
     4 O3          14.0660    31.7180     8.1660 O.3          1 RAL600   0.0000
     5 C4          15.5780    31.5290    10.0650 C.ar         1 RAL600   0.0000
     6 C5          16.6460    30.9470    10.6570 C.ar         1 RAL600   0.0000
     7 S6          17.3610    31.2370    12.1470 S.3          1 RAL600   0.0000
     8 C7          18.5990    30.1110    12.0670 C.2          1 RAL600   0.0000
     9 C8          19.6040    29.8810    13.1400 C.ar         1 RAL600   0.0000
    10 C9          19.2300    29.5540    14.4130 C.ar         1 RAL600   0.0000
    11 C10         20.1620    29.3210    15.4300 C.ar         1 RAL600   0.0000
    12 C11         21.5120    29.4270    15.1430 C.ar         1 RAL600   0.0000
    13 O11         22.4470    29.2040    16.1390 O.3          1 RAL600   0.0000
    14 C12         21.9140    29.7600    13.8570 C.ar         1 RAL600   0.0000
    15 C13         20.9610    29.9850    12.8660 C.ar         1 RAL600   0.0000
    16 C14         17.3510    29.9080     9.9890 C.ar         1 RAL600   0.0000
    17 C15         18.4770    29.4450    10.8130 C.2          1 RAL600   0.0000
    18 C16         19.3470    28.4220    10.4480 C.2          1 RAL600   0.0000
    19 O16         19.2450    27.3330    11.0420 O.2          1 RAL600   0.0000
    20 C17         20.3630    28.5880     9.4140 C.ar         1 RAL600   0.0000
    21 C18         21.1230    27.5080     8.9700 C.ar         1 RAL600   0.0000
    22 C19         22.1230    27.6120     7.9710 C.ar         1 RAL600   0.0000
    23 C20         22.3250    28.8770     7.4450 C.ar         1 RAL600   0.0000
    24 C21         21.5720    29.9490     7.8960 C.ar         1 RAL600   0.0000
    25 C22         20.6060    29.8300     8.8500 C.ar         1 RAL600   0.0000
    26 O23         23.2300    29.2790     6.4660 O.3          1 RAL600   0.0000
    27 C24         23.4640    28.3530     5.4320 C.3          1 RAL600   0.0000
    28 C25         24.7760    28.7900     4.7940 C.3          1 RAL600   0.0000
    29 N26         24.7430    29.7120     3.6430 N.4          1 RAL600   1.0000
    30 C27         26.0710    29.5940     2.9850 C.3          1 RAL600   0.0000
    31 C28         26.1790    30.4500     1.7240 C.3          1 RAL600   0.0000
    32 C29         25.9590    31.9320     2.0940 C.3          1 RAL600   0.0000
    33 C30         24.6040    32.0420     2.7970 C.3          1 RAL600   0.0000
    34 C31         24.5390    31.1170     4.0200 C.3          1 RAL600   0.0000
    35 H1          17.4230    28.7960     8.2530 H            1 RAL600   0.0000
    36 H2          15.5546    29.8431     7.1876 H            1 RAL600   0.0000
    37 H3          13.7826    31.4184     7.2550 H            1 RAL600   0.0000
    38 H4          15.0806    32.2509    10.5462 H            1 RAL600   0.0000
    39 H5          18.2557    29.4786    14.6251 H            1 RAL600   0.0000
    40 H6          19.8571    29.0812    16.3517 H            1 RAL600   0.0000
    41 H7          23.4230    29.2798    15.9347 H            1 RAL600   0.0000
    42 H8          22.8874    29.8384    13.6418 H            1 RAL600   0.0000
    43 H9          21.2593    30.2253    11.9423 H            1 RAL600   0.0000
    44 H10         20.9538    26.6109     9.3782 H            1 RAL600   0.0000
    45 H11         22.6508    26.8198     7.6645 H            1 RAL600   0.0000
    46 H12         21.7454    30.8521     7.5032 H            1 RAL600   0.0000
    47 H13         20.0791    30.6292     9.1393 H            1 RAL600   0.0000
    48 H14         22.7220    28.3805     4.7621 H            1 RAL600   0.0000
    49 H15         23.5451    27.4275     5.8018 H            1 RAL600   0.0000
    50 H16         25.2443    27.9602     4.4906 H            1 RAL600   0.0000
    51 H17         25.3152    29.2344     5.5093 H            1 RAL600   0.0000
    52 H18         26.2216    28.6371     2.7366 H            1 RAL600   0.0000
    53 H19         26.7760    29.8855     3.6315 H            1 RAL600   0.0000
    54 H20         25.4836    30.1633     1.0650 H            1 RAL600   0.0000
    55 H21         27.0871    30.3376     1.3206 H            1 RAL600   0.0000
    56 H22         25.9594    32.4930     1.2662 H            1 RAL600   0.0000
    57 H23         26.6863    32.2413     2.7067 H            1 RAL600   0.0000
    58 H24         23.8813    31.7858     2.1550 H            1 RAL600   0.0000
    59 H25         24.4662    32.9867     3.0944 H            1 RAL600   0.0000
    60 H26         25.2505    31.3860     4.6692 H            1 RAL600   0.0000
    61 H27         23.6416    31.2108     4.4512 H            1 RAL600   0.0000
    62 H28         24.0264    29.4280     3.0060 H            1 RAL600   0.0000
@<TRIPOS>BOND
     1    1    2      ar
     2    1   16      ar
     3    2    3      ar
     4    3    4       1
     5    3    5      ar
     6    5    6      ar
     7    6    7       1
     8    6   16      ar
     9    7    8       1
    10    8    9       1
    11    8   17       2
    12    9   10      ar
    13    9   15      ar
    14   10   11      ar
    15   11   12      ar
    16   12   13       1
    17   12   14      ar
    18   14   15      ar
    19   16   17       1
    20   17   18       1
    21   18   19       2
    22   18   20       1
    23   20   21      ar
    24   20   25      ar
    25   21   22      ar
    26   22   23      ar
    27   23   24      ar
    28   23   26       1
    29   24   25      ar
    30   26   27       1
    31   27   28       1
    32   28   29       1
    33   29   30       1
    34   29   34       1
    35   30   31       1
    36   31   32       1
    37   32   33       1
    38   33   34       1
    39    1   35       1
    40    2   36       1
    41    4   37       1
    42    5   38       1
    43   10   39       1
    44   11   40       1
    45   13   41       1
    46   14   42       1
    47   15   43       1
    48   21   44       1
    49   22   45       1
    50   24   46       1
    51   25   47       1
    52   27   48       1
    53   27   49       1
    54   28   50       1
    55   28   51       1
    56   30   52       1
    57   30   53       1
    58   31   54       1
    59   31   55       1
    60   32   56       1
    61   32   57       1
    62   33   58       1
    63   33   59       1
    64   34   60       1
    65   34   61       1
    66   29   62       1
@<TRIPOS>SUBSTRUCTURE
     1 RAL600      1 GROUP             4 A     RAL     0 **** RAL A 600
