@<TRIPOS>MOLECULE
5jlj_GNP_1_ligand
   45    47     1     0     0
SMALL
NO_CHARGES


@<TRIPOS>ATOM
     1 PG           6.4210    37.9060    27.9350 P.3          1 GNP301   0.0000
     2 O1G          6.7570    36.6490    27.1520 O.co2        1 GNP301   0.0000
     3 O2G          6.1120    37.4900    29.3450 O.co2        1 GNP301  -1.0000
     4 O3G          7.5680    38.8880    27.9070 O.co2        1 GNP301  -1.0000
     5 N3B          5.1400    38.6840    27.2410 N.3          1 GNP301   0.0000
     6 PB           4.6970    40.2120    27.7040 P.3          1 GNP301   0.0000
     7 O1B          5.9010    41.0990    27.9520 O.co2        1 GNP301   0.0000
     8 O2B          3.8430    40.1650    28.9580 O.co2        1 GNP301  -1.0000
     9 O3A          3.8440    40.8050    26.5290 O.3          1 GNP301   0.0000
    10 PA           4.3370    41.8220    25.4220 P.3          1 GNP301   0.0000
    11 O1A          5.5790    41.2880    24.7470 O.co2        1 GNP301   0.0000
    12 O2A          4.6140    43.1600    26.0530 O.co2        1 GNP301  -1.0000
    13 O5'          3.1590    42.0780    24.3880 O.3          1 GNP301   0.0000
    14 C5'          2.5730    40.9740    23.7260 C.3          1 GNP301   0.0000
    15 C4'          1.5000    41.4100    22.7050 C.3          1 GNP301   0.0000
    16 O4'          0.4890    41.9520    23.3390 O.3          1 GNP301   0.0000
    17 C3'          2.1060    42.4700    21.7640 C.3          1 GNP301   0.0000
    18 O3'          1.8420    42.2730    20.4320 O.3          1 GNP301   0.0000
    19 C2'          1.4450    43.7690    22.2290 C.3          1 GNP301   0.0000
    20 O2'          1.4080    44.6050    20.9880 O.3          1 GNP301   0.0000
    21 C1'          0.2640    43.4080    22.7100 C.3          1 GNP301   0.0000
    22 N9          -0.2540    44.3300    23.6690 N.pl3        1 GNP301   0.0000
    23 C8           0.3520    44.7870    24.8050 C.2          1 GNP301   0.0000
    24 N7          -0.4650    45.6790    25.4170 N.2          1 GNP301   0.0000
    25 C5          -1.6030    45.7780    24.6610 C.2          1 GNP301   0.0000
    26 C6          -2.7800    46.5250    24.7980 C.2          1 GNP301   0.0000
    27 O6          -2.9860    47.2810    25.7370 O.2          1 GNP301   0.0000
    28 N1          -3.7380    46.4090    23.8710 N.pl3        1 GNP301   0.0000
    29 C2          -3.5790    45.5670    22.8140 C.2          1 GNP301   0.0000
    30 N2          -4.6060    45.4730    21.8490 N.pl3        1 GNP301   0.0000
    31 N3          -2.4370    44.8310    22.6590 N.2          1 GNP301   0.0000
    32 C4          -1.4570    44.9470    23.5900 C.2          1 GNP301   0.0000
    33 H3B          5.3369    38.7325    26.2618 H            1 GNP301   0.0000
    34 H5'1         2.1466    40.3790    24.4073 H            1 GNP301   0.0000
    35 H5'2         3.2897    40.4694    23.2446 H            1 GNP301   0.0000
    36 H4'          1.1892    40.6202    22.1763 H            1 GNP301   0.0000
    37 H3'          3.0941    42.5237    21.9079 H            1 GNP301   0.0000
    38 H6           1.3448    43.0618    20.0705 H            1 GNP301   0.0000
    39 H2'          1.9949    44.2117    22.9373 H            1 GNP301   0.0000
    40 H8           2.2468    45.1458    20.9252 H            1 GNP301   0.0000
    41 H1'         -0.3837    43.3345    21.9516 H            1 GNP301   0.0000
    42 H10          1.2546    44.5079    25.1328 H            1 GNP301   0.0000
    43 H11         -4.5776    46.9455    23.9557 H            1 GNP301   0.0000
    44 H12         -4.5026    44.8583    21.0670 H            1 GNP301   0.0000
    45 H13         -5.4365    46.0211    21.9477 H            1 GNP301   0.0000
@<TRIPOS>BOND
     1    1    2      ar
     2    1    3      ar
     3    1    4      ar
     4    1    5       1
     5    5    6       1
     6    6    7      ar
     7    6    8      ar
     8    6    9       1
     9    9   10       1
    10   10   11      ar
    11   10   12      ar
    12   10   13       1
    13   13   14       1
    14   14   15       1
    15   15   16       1
    16   15   17       1
    17   16   21       1
    18   17   18       1
    19   17   19       1
    20   19   20       1
    21   19   21       1
    22   21   22       1
    23   22   23       1
    24   22   32       1
    25   23   24       2
    26   24   25       1
    27   25   26       1
    28   25   32       2
    29   26   27       2
    30   26   28       1
    31   28   29       1
    32   29   30       1
    33   29   31       2
    34   31   32       1
    35   30   45       1
    36   30   44       1
    37    5   33       1
    38   28   43       1
    39   23   42       1
    40   14   34       1
    41   14   35       1
    42   15   36       1
    43   17   37       1
    44   18   38       1
    45   19   39       1
    46   20   40       1
    47   21   41       1
@<TRIPOS>SUBSTRUCTURE
     1 GNP301      1 GROUP             4 A     GNP     0 **** GNP A 301
