@<TRIPOS>MOLECULE
3eo8_FMN_6_ligand
   50    52     1     0     0
SMALL
NO_CHARGES


@<TRIPOS>ATOM
     1 N1          31.4400   107.1190    13.2480 N.2          1 FMN500   0.0000
     2 C2          30.7720   106.0240    13.7640 C.2          1 FMN500   0.0000
     3 O2          30.9320   104.8930    13.2940 O.2          1 FMN500   0.0000
     4 N3          29.9150   106.1550    14.8340 N.pl3        1 FMN500   0.0000
     5 C4          29.6850   107.3620    15.4050 C.2          1 FMN500   0.0000
     6 O4          29.0510   107.3970    16.4760 O.2          1 FMN500   0.0000
     7 C4A         30.3260   108.4840    14.8790 C.2          1 FMN500   0.0000
     8 N5          30.1050   109.7320    15.4580 N.2          1 FMN500   0.0000
     9 C5A         30.7750   110.8220    14.9810 C.ar         1 FMN500   0.0000
    10 C6          30.5670   112.0470    15.6290 C.ar         1 FMN500   0.0000
    11 C7          31.2070   113.1700    15.1800 C.ar         1 FMN500   0.0000
    12 C7M         31.1930   114.4250    16.0170 C.3          1 FMN500   0.0000
    13 C8          32.1200   113.0500    14.1190 C.ar         1 FMN500   0.0000
    14 C8M         33.0780   114.1890    13.8380 C.3          1 FMN500   0.0000
    15 C9          32.3190   111.8160    13.4760 C.ar         1 FMN500   0.0000
    16 C9A         31.6680   110.6820    13.9130 C.ar         1 FMN500   0.0000
    17 N10         31.8490   109.4400    13.2960 N.pl3        1 FMN500   0.0000
    18 C10         31.2180   108.3410    13.8100 C.2          1 FMN500   0.0000
    19 C1'         32.6860   109.2520    12.0700 C.3          1 FMN500   0.0000
    20 C2'         32.0150   109.6470    10.7590 C.3          1 FMN500   0.0000
    21 O2'         31.0970   108.6190    10.3540 O.3          1 FMN500   0.0000
    22 C3'         33.1120   109.8260     9.7080 C.3          1 FMN500   0.0000
    23 O3'         33.9740   110.8680    10.0790 O.3          1 FMN500   0.0000
    24 C4'         32.6020   110.1330     8.2960 C.3          1 FMN500   0.0000
    25 O4'         31.7690   109.1160     7.8310 O.3          1 FMN500   0.0000
    26 C5'         33.7920   110.2900     7.3560 C.3          1 FMN500   0.0000
    27 O5'         34.5360   109.1140     7.2480 O.3          1 FMN500   0.0000
    28 P           36.1150   109.2130     7.5900 P.3          1 FMN500   0.0000
    29 O1P         36.7240   107.8410     7.5610 O.co2        1 FMN500   0.0000
    30 O2P         36.2560   109.8240     8.9610 O.co2        1 FMN500  -1.0000
    31 O3P         36.7900   110.1110     6.5420 O.co2        1 FMN500  -1.0000
    32 H1          29.4542   105.3447    15.1961 H            1 FMN500   0.0000
    33 H2          29.9531   112.1002    16.4166 H            1 FMN500   0.0000
    34 H7M1        31.7029   115.1452    15.5465 H            1 FMN500   0.0000
    35 H7M2        30.2484   114.7221    16.1565 H            1 FMN500   0.0000
    36 H7M3        31.6184   114.2397    16.9028 H            1 FMN500   0.0000
    37 H8M1        33.6579   113.9522    13.0585 H            1 FMN500   0.0000
    38 H8M2        32.5586   115.0172    13.6276 H            1 FMN500   0.0000
    39 H8M3        33.6500   114.3496    14.6424 H            1 FMN500   0.0000
    40 H9          32.9392   111.7601    12.6935 H            1 FMN500   0.0000
    41 H1'1        32.9354   108.2854    12.0109 H            1 FMN500   0.0000
    42 H1'2        33.5134   109.8041    12.1727 H            1 FMN500   0.0000
    43 H2'         31.5222   110.5087    10.8802 H            1 FMN500   0.0000
    44 H13         30.1944   108.8066    10.7414 H            1 FMN500   0.0000
    45 H3'         33.6452   108.9810     9.6687 H            1 FMN500   0.0000
    46 H15         34.8899   110.6863     9.7212 H            1 FMN500   0.0000
    47 H4'         32.0880   110.9906     8.3155 H            1 FMN500   0.0000
    48 H17         31.2996   108.6898     8.6043 H            1 FMN500   0.0000
    49 H5'1        34.3850   111.0155     7.7052 H            1 FMN500   0.0000
    50 H5'2        33.4550   110.5426     6.4490 H            1 FMN500   0.0000
@<TRIPOS>BOND
     1    1    2       1
     2    1   18       2
     3    2    3       2
     4    2    4       1
     5    4    5       1
     6    5    6       2
     7    5    7       1
     8    7    8       2
     9    7   18       1
    10    8    9       1
    11    9   10      ar
    12    9   16      ar
    13   10   11      ar
    14   11   12       1
    15   11   13      ar
    16   13   14       1
    17   13   15      ar
    18   15   16      ar
    19   16   17       1
    20   17   18       1
    21   17   19       1
    22   19   20       1
    23   20   21       1
    24   20   22       1
    25   22   23       1
    26   22   24       1
    27   24   25       1
    28   24   26       1
    29   26   27       1
    30   27   28       1
    31   28   29      ar
    32   28   30      ar
    33   28   31      ar
    34    4   32       1
    35   10   33       1
    36   12   34       1
    37   12   35       1
    38   12   36       1
    39   14   37       1
    40   14   38       1
    41   14   39       1
    42   15   40       1
    43   19   41       1
    44   19   42       1
    45   20   43       1
    46   21   44       1
    47   22   45       1
    48   23   46       1
    49   24   47       1
    50   25   48       1
    51   26   49       1
    52   26   50       1
@<TRIPOS>SUBSTRUCTURE
     1 FMN500      1 GROUP             4 F     FMN     0 **** FMN F 500
