@<TRIPOS>MOLECULE
1zh8_NAP_1_ligand
   73    77     1     0     0
SMALL
NO_CHARGES


@<TRIPOS>ATOM
     1 PA          49.5420     5.5720    -2.1050 P.3          1 NAP400   0.0000
     2 O1A         48.1340     5.1940    -2.3930 O.co2        1 NAP400   0.0000
     3 O2A         50.2570     4.5900    -1.2740 O.co2        1 NAP400  -1.0000
     4 O5B         50.2760     5.8660    -3.5000 O.3          1 NAP400   0.0000
     5 C5B         51.6560     5.6210    -3.6440 C.3          1 NAP400   0.0000
     6 C4B         51.8670     4.9100    -4.9670 C.3          1 NAP400   0.0000
     7 O4B         53.2540     4.8390    -5.2700 O.3          1 NAP400   0.0000
     8 C3B         51.3600     3.4730    -4.9290 C.3          1 NAP400   0.0000
     9 O3B         50.8460     3.2320    -6.2060 O.3          1 NAP400   0.0000
    10 C2B         52.6510     2.7040    -4.7060 C.3          1 NAP400   0.0000
    11 O2B         52.7870     1.3060    -4.9370 O.3          1 NAP400   0.0000
    12 C1B         53.5840     3.4970    -5.5950 C.3          1 NAP400   0.0000
    13 N9A         54.9810     3.2050    -5.2850 N.pl3        1 NAP400   0.0000
    14 C8A         55.5300     2.8740    -4.0660 C.2          1 NAP400   0.0000
    15 N7A         56.8600     2.7060    -4.2370 N.2          1 NAP400   0.0000
    16 C5A         57.1570     2.9200    -5.5460 C.ar         1 NAP400   0.0000
    17 C6A         58.3400     2.8790    -6.2730 C.ar         1 NAP400   0.0000
    18 N6A         59.4820     2.5610    -5.6870 N.pl3        1 NAP400   0.0000
    19 N1A         58.3340     3.1690    -7.6120 N.ar         1 NAP400   0.0000
    20 C2A         57.1500     3.4800    -8.2360 C.ar         1 NAP400   0.0000
    21 N3A         55.9760     3.5140    -7.5280 N.ar         1 NAP400   0.0000
    22 C4A         55.9830     3.2410    -6.2080 C.ar         1 NAP400   0.0000
    23 O3          49.5500     6.9710    -1.3330 O.3          1 NAP400   0.0000
    24 PN          48.8690     8.3160    -1.8910 P.3          1 NAP400   0.0000
    25 O1N         48.4620     8.2540    -3.3310 O.co2        1 NAP400   0.0000
    26 O2N         47.9450     8.6260    -0.8090 O.co2        1 NAP400  -1.0000
    27 O5D         50.0470     9.4130    -1.8180 O.3          1 NAP400   0.0000
    28 C5D         51.0500     9.5720    -2.8060 C.3          1 NAP400   0.0000
    29 C4D         51.5540    11.0130    -2.7680 C.3          1 NAP400   0.0000
    30 O4D         50.4490    11.8890    -2.9560 O.3          1 NAP400   0.0000
    31 C3D         52.1560    11.3530    -1.4010 C.3          1 NAP400   0.0000
    32 O3D         53.3160    12.1380    -1.5460 O.3          1 NAP400   0.0000
    33 C2D         51.0920    12.1590    -0.6960 C.3          1 NAP400   0.0000
    34 O2D         51.6300    13.0970     0.2130 O.3          1 NAP400   0.0000
    35 C1D         50.3720    12.8060    -1.8700 C.3          1 NAP400   0.0000
    36 N1N         48.9870    13.1150    -1.5240 N.ar         1 NAP400   1.0000
    37 C2N         48.5770    14.4140    -1.6160 C.ar         1 NAP400   0.0000
    38 C3N         47.2660    14.7730    -1.2880 C.ar         1 NAP400   0.0000
    39 C7N         46.7500    16.1560    -1.6010 C.2          1 NAP400   0.0000
    40 O7N         45.4290    16.4380    -1.2050 O.2          1 NAP400   0.0000
    41 N7N         47.5110    17.0700    -2.2340 N.am         1 NAP400   0.0000
    42 C4N         46.3710    13.7790    -0.8690 C.ar         1 NAP400   0.0000
    43 C5N         46.7950    12.4460    -0.7910 C.ar         1 NAP400   0.0000
    44 C6N         48.1150    12.1240    -1.1220 C.ar         1 NAP400   0.0000
    45 P2B         51.9060     0.2460    -5.7690 P.3          1 NAP400   0.0000
    46 O1X         52.2880     0.2360    -7.2340 O.co2        1 NAP400   0.0000
    47 O2X         50.4310     0.5620    -5.6710 O.co2        1 NAP400  -1.0000
    48 O3X         52.2290    -1.0840    -5.1230 O.co2        1 NAP400  -1.0000
    49 H5B1        51.9791     5.0448    -2.8932 H            1 NAP400   0.0000
    50 H5B2        52.1571     6.4864    -3.6395 H            1 NAP400   0.0000
    51 H4B         51.3937     5.4102    -5.6921 H            1 NAP400   0.0000
    52 H3B         50.6874     3.3187    -4.2053 H            1 NAP400   0.0000
    53 H5          50.4926     2.2977    -6.2522 H            1 NAP400   0.0000
    54 H2B         52.9328     2.8732    -3.7616 H            1 NAP400   0.0000
    55 H1B         53.3922     3.3119    -6.5588 H            1 NAP400   0.0000
    56 H8A         55.0315     2.7752    -3.2048 H            1 NAP400   0.0000
    57 H6A1        60.3274     2.5347    -6.2205 H            1 NAP400   0.0000
    58 H6A2        59.5002     2.3468    -4.7104 H            1 NAP400   0.0000
    59 H2A         57.1443     3.6834    -9.2151 H            1 NAP400   0.0000
    60 H5D1        50.6674     9.3734    -3.7083 H            1 NAP400   0.0000
    61 H5D2        51.8073     8.9460    -2.6199 H            1 NAP400   0.0000
    62 H4D         52.2331    11.1580    -3.4876 H            1 NAP400   0.0000
    63 H3D         52.3594    10.5179    -0.8900 H            1 NAP400   0.0000
    64 H16         54.1155    11.5415    -1.6169 H            1 NAP400   0.0000
    65 H2D         50.4670    11.5441    -0.2150 H            1 NAP400   0.0000
    66 H18         52.2221    13.7356    -0.2785 H            1 NAP400   0.0000
    67 H1D         50.8445    13.6512    -2.1197 H            1 NAP400   0.0000
    68 H2N         49.2208    15.1158    -1.9210 H            1 NAP400   0.0000
    69 H7N1        47.1426    17.9791    -2.4284 H            1 NAP400   0.0000
    70 H7N2        48.4442    16.8393    -2.5094 H            1 NAP400   0.0000
    71 H4N         45.4316    14.0209    -0.6262 H            1 NAP400   0.0000
    72 H5N         46.1591    11.7308    -0.5011 H            1 NAP400   0.0000
    73 H6N         48.4270    11.1755    -1.0674 H            1 NAP400   0.0000
@<TRIPOS>BOND
     1    1    2      ar
     2    1    3      ar
     3    1    4       1
     4    1   23       1
     5    4    5       1
     6    5    6       1
     7    6    7       1
     8    6    8       1
     9    7   12       1
    10    8    9       1
    11    8   10       1
    12   10   11       1
    13   10   12       1
    14   11   45       1
    15   12   13       1
    16   13   14       1
    17   13   22       1
    18   14   15       2
    19   15   16       1
    20   16   17      ar
    21   16   22      ar
    22   17   18       1
    23   17   19      ar
    24   19   20      ar
    25   20   21      ar
    26   21   22      ar
    27   23   24       1
    28   24   25      ar
    29   24   26      ar
    30   24   27       1
    31   27   28       1
    32   28   29       1
    33   29   30       1
    34   29   31       1
    35   30   35       1
    36   31   32       1
    37   31   33       1
    38   33   34       1
    39   33   35       1
    40   35   36       1
    41   36   37      ar
    42   36   44      ar
    43   37   38      ar
    44   38   39       1
    45   38   42      ar
    46   39   40       2
    47   39   41      am
    48   42   43      ar
    49   43   44      ar
    50   45   46      ar
    51   45   47      ar
    52   45   48      ar
    53   43   72       1
    54    5   49       1
    55    5   50       1
    56    6   51       1
    57    8   52       1
    58    9   53       1
    59   10   54       1
    60   12   55       1
    61   14   56       1
    62   18   57       1
    63   18   58       1
    64   20   59       1
    65   44   73       1
    66   28   60       1
    67   28   61       1
    68   29   62       1
    69   31   63       1
    70   32   64       1
    71   33   65       1
    72   34   66       1
    73   35   67       1
    74   37   68       1
    75   41   69       1
    76   41   70       1
    77   42   71       1
@<TRIPOS>SUBSTRUCTURE
     1 NAP400      1 GROUP             4 A     NAP     0 **** NAP A 400
