@<TRIPOS>MOLECULE
5hwr_COA_1_ligand
   80    82     1     0     0
SMALL
NO_CHARGES


@<TRIPOS>ATOM
     1 N1A        -21.4100   -30.7730   -21.2460 N.ar         1 COA507   0.0000
     2 C2A        -20.2210   -30.2590   -21.3010 C.ar         1 COA507   0.0000
     3 N3A        -19.9830   -28.9710   -21.4510 N.ar         1 COA507   0.0000
     4 C4A        -20.9740   -28.1250   -21.5500 C.ar         1 COA507   0.0000
     5 C5A        -22.3250   -28.6120   -21.4870 C.ar         1 COA507   0.0000
     6 C6A        -22.4740   -30.0460   -21.3070 C.ar         1 COA507   0.0000
     7 N6A        -23.6980   -30.5390   -21.2550 N.pl3        1 COA507   0.0000
     8 N7A        -23.1200   -27.5920   -21.5970 N.2          1 COA507   0.0000
     9 C8A        -22.3540   -26.5200   -21.7000 C.2          1 COA507   0.0000
    10 N9A        -21.0950   -26.8240   -21.6730 N.pl3        1 COA507   0.0000
    11 C1B        -19.9580   -25.8970   -21.7750 C.3          1 COA507   0.0000
    12 C2B        -20.0570   -24.8420   -22.8010 C.3          1 COA507   0.0000
    13 O2B        -19.7740   -25.3510   -24.0750 O.3          1 COA507   0.0000
    14 C3B        -19.0110   -23.8490   -22.3240 C.3          1 COA507   0.0000
    15 O3B        -17.7470   -24.2860   -22.6460 O.3          1 COA507   0.0000
    16 P3B        -16.5120   -23.3410   -23.0680 P.3          1 COA507   0.0000
    17 O7A        -17.1000   -22.2520   -23.6950 O.co2        1 COA507   0.0000
    18 O8A        -15.9470   -22.9120   -21.7970 O.co2        1 COA507  -1.0000
    19 O9A        -15.6750   -24.1340   -23.8040 O.co2        1 COA507  -1.0000
    20 C4B        -19.2060   -23.9460   -20.8090 C.3          1 COA507   0.0000
    21 O4B        -19.8940   -25.1580   -20.5840 O.3          1 COA507   0.0000
    22 C5B        -20.0330   -22.8280   -20.2430 C.3          1 COA507   0.0000
    23 O5B        -21.1330   -22.6020   -21.0330 O.3          1 COA507   0.0000
    24 P1A        -21.7460   -21.1870   -21.2370 P.3          1 COA507   0.0000
    25 O1A        -22.7930   -21.2740   -22.2420 O.co2        1 COA507   0.0000
    26 O2A        -20.6540   -20.2660   -21.5290 O.co2        1 COA507  -1.0000
    27 O3A        -22.3670   -20.7960   -19.8250 O.3          1 COA507   0.0000
    28 P2A        -23.2310   -19.5640   -19.4020 P.3          1 COA507   0.0000
    29 O4A        -24.3580   -20.0120   -18.7090 O.co2        1 COA507   0.0000
    30 O5A        -23.4370   -18.6340   -20.4760 O.co2        1 COA507  -1.0000
    31 O6A        -22.3030   -18.8050   -18.4100 O.3          1 COA507   0.0000
    32 CBP        -20.6130   -18.0250   -17.0970 C.3          1 COA507   0.0000
    33 CCP        -21.1530   -19.2300   -17.8190 C.3          1 COA507   0.0000
    34 CDP        -19.3170   -18.3900   -16.4510 C.3          1 COA507   0.0000
    35 CEP        -20.3710   -16.9300   -18.0960 C.3          1 COA507   0.0000
    36 CAP        -21.6310   -17.5570   -16.0750 C.3          1 COA507   0.0000
    37 OAP        -21.8200   -18.5670   -15.1080 O.3          1 COA507   0.0000
    38 C9P        -21.3250   -16.2220   -15.4390 C.2          1 COA507   0.0000
    39 O9P        -21.6340   -15.2030   -15.9280 O.2          1 COA507   0.0000
    40 N8P        -20.7020   -16.3080   -14.3090 N.am         1 COA507   0.0000
    41 C7P        -20.3720   -15.1500   -13.5390 C.3          1 COA507   0.0000
    42 C6P        -19.2340   -14.3520   -14.0970 C.3          1 COA507   0.0000
    43 C5P        -17.9470   -15.0810   -14.2290 C.2          1 COA507   0.0000
    44 O5P        -17.5620   -15.7860   -13.3990 O.2          1 COA507   0.0000
    45 N4P        -17.2360   -14.7790   -15.3040 N.am         1 COA507   0.0000
    46 C3P        -15.8810   -15.1540   -15.4090 C.3          1 COA507   0.0000
    47 C2P        -15.1680   -13.9770   -15.9140 C.3          1 COA507   0.0000
    48 S1P        -13.4740   -14.3890   -15.8500 S.3          1 COA507   0.0000
    49 H2A        -19.4379   -30.8762   -21.2251 H            1 COA507   0.0000
    50 H6A1       -24.4865   -29.9262   -21.3070 H            1 COA507   0.0000
    51 H6A2       -23.8364   -31.5252   -21.1636 H            1 COA507   0.0000
    52 H8A        -22.7038   -25.5873   -21.7881 H            1 COA507   0.0000
    53 H1B        -19.1104   -26.4127   -21.8998 H            1 COA507   0.0000
    54 H2B        -20.9659   -24.4252   -22.7860 H            1 COA507   0.0000
    55 H7         -19.8478   -24.6177   -24.7509 H            1 COA507   0.0000
    56 H3B        -19.1869   -22.9260   -22.6662 H            1 COA507   0.0000
    57 H4B        -18.3159   -23.9725   -20.3541 H            1 COA507   0.0000
    58 H5B1       -19.4795   -21.9961   -20.2023 H            1 COA507   0.0000
    59 H5B2       -20.3335   -23.0738   -19.3215 H            1 COA507   0.0000
    60 HCP1       -20.5012   -19.5476   -18.5077 H            1 COA507   0.0000
    61 HCP2       -21.3429   -19.9698   -17.1735 H            1 COA507   0.0000
    62 HDP1       -18.9497   -17.5951   -15.9681 H            1 COA507   0.0000
    63 HDP2       -19.4667   -19.1350   -15.8009 H            1 COA507   0.0000
    64 HDP3       -18.6667   -18.6844   -17.1513 H            1 COA507   0.0000
    65 HEP1       -20.0117   -16.1237   -17.6262 H            1 COA507   0.0000
    66 HEP2       -19.7090   -17.2412   -18.7778 H            1 COA507   0.0000
    67 HEP3       -21.2312   -16.6961   -18.5491 H            1 COA507   0.0000
    68 HAP        -22.5000   -17.4541   -16.5590 H            1 COA507   0.0000
    69 H21        -22.7537   -18.5184   -14.7533 H            1 COA507   0.0000
    70 H8P        -20.4438   -17.2104   -13.9641 H            1 COA507   0.0000
    71 H7P1       -20.1260   -15.4457   -12.6159 H            1 COA507   0.0000
    72 H7P2       -21.1785   -14.5603   -13.4963 H            1 COA507   0.0000
    73 H6P1       -19.0835   -13.5675   -13.4954 H            1 COA507   0.0000
    74 H6P2       -19.5000   -14.0293   -15.0054 H            1 COA507   0.0000
    75 H4P        -17.6669   -14.2768   -16.0537 H            1 COA507   0.0000
    76 H3P1       -15.7815   -15.9189   -16.0454 H            1 COA507   0.0000
    77 H3P2       -15.5239   -15.4174   -14.5128 H            1 COA507   0.0000
    78 H2P1       -15.3556   -13.1817   -15.3376 H            1 COA507   0.0000
    79 H2P2       -15.4436   -13.7793   -16.8547 H            1 COA507   0.0000
    80 H1P        -13.3041   -15.1909   -16.4228 H            1 COA507   0.0000
@<TRIPOS>BOND
     1    1    2      ar
     2    1    6      ar
     3    2    3      ar
     4    3    4      ar
     5    4    5      ar
     6    4   10       1
     7    5    6      ar
     8    5    8       1
     9    6    7       1
    10    8    9       2
    11    9   10       1
    12   10   11       1
    13   11   12       1
    14   11   21       1
    15   12   13       1
    16   12   14       1
    17   14   15       1
    18   14   20       1
    19   15   16       1
    20   16   17      ar
    21   16   18      ar
    22   16   19      ar
    23   20   21       1
    24   20   22       1
    25   22   23       1
    26   23   24       1
    27   24   25      ar
    28   24   26      ar
    29   24   27       1
    30   27   28       1
    31   28   29      ar
    32   28   30      ar
    33   28   31       1
    34   31   33       1
    35   32   33       1
    36   32   34       1
    37   32   35       1
    38   32   36       1
    39   36   37       1
    40   36   38       1
    41   38   39       2
    42   38   40      am
    43   40   41       1
    44   41   42       1
    45   42   43       1
    46   43   44       2
    47   43   45      am
    48   45   46       1
    49   46   47       1
    50   47   48       1
    51    2   49       1
    52    7   50       1
    53    7   51       1
    54    9   52       1
    55   11   53       1
    56   12   54       1
    57   13   55       1
    58   14   56       1
    59   48   80       1
    60   47   79       1
    61   20   57       1
    62   22   58       1
    63   22   59       1
    64   47   78       1
    65   46   77       1
    66   33   60       1
    67   33   61       1
    68   34   62       1
    69   34   63       1
    70   34   64       1
    71   35   65       1
    72   35   66       1
    73   35   67       1
    74   36   68       1
    75   37   69       1
    76   40   70       1
    77   41   71       1
    78   41   72       1
    79   42   73       1
    80   42   74       1
    81   45   75       1
    82   46   76       1
@<TRIPOS>SUBSTRUCTURE
     1 COA507      1 GROUP             4 A     COA     0 **** COA A 507
