@<TRIPOS>MOLECULE
1r5l_VIV_1_ligand
   81    82     1     0     0
SMALL
NO_CHARGES


@<TRIPOS>ATOM
     1 O1          -0.9930    63.9060    13.4710 O.3          1 VIV301   0.0000
     2 O2           3.1650    67.5200    13.2550 O.3          1 VIV301   0.0000
     3 C1          -0.1210    54.9690    12.8160 C.3          1 VIV301   0.0000
     4 C2           2.3960    65.3200    13.7440 C.ar         1 VIV301   0.0000
     5 C3           1.3500    64.3830    13.8200 C.ar         1 VIV301   0.0000
     6 C4           0.0720    64.7950    13.4480 C.ar         1 VIV301   0.0000
     7 C5          -0.2240    66.0930    13.0310 C.ar         1 VIV301   0.0000
     8 C6           0.8320    67.0350    12.9530 C.ar         1 VIV301   0.0000
     9 C7           2.1210    66.6160    13.3080 C.ar         1 VIV301   0.0000
    10 C8           3.8190    64.9590    14.1380 C.3          1 VIV301   0.0000
    11 C9          -0.7250    62.4830    13.4560 C.3          1 VIV301   0.0000
    12 C10          1.5770    62.9290    14.3050 C.3          1 VIV301   0.0000
    13 C11          0.2660    62.1860    14.5660 C.3          1 VIV301   0.0000
    14 C12         -1.6650    66.4670    12.6800 C.3          1 VIV301   0.0000
    15 C13          0.5600    68.4460    12.4930 C.3          1 VIV301   0.0000
    16 C14         -0.2060    62.0730    12.0520 C.3          1 VIV301   0.0000
    17 C15         -2.0920    61.8030    13.7010 C.3          1 VIV301   0.0000
    18 C16         -2.0040    60.2660    13.8390 C.3          1 VIV301   0.0000
    19 C17         -3.4330    59.6860    14.0170 C.3          1 VIV301   0.0000
    20 C18         -3.4530    58.1690    14.0380 C.3          1 VIV301   0.0000
    21 C19         -4.8920    57.6990    13.9440 C.3          1 VIV301   0.0000
    22 C20         -2.7620    57.6800    15.3250 C.3          1 VIV301   0.0000
    23 C21         -2.5690    56.1930    15.4870 C.3          1 VIV301   0.0000
    24 C22         -1.8980    55.4740    14.3980 C.3          1 VIV301   0.0000
    25 C23         -0.4570    55.8290    13.9990 C.3          1 VIV301   0.0000
    26 C24          0.5580    55.6910    15.1440 C.3          1 VIV301   0.0000
    27 C25          1.9830    56.1880    14.6960 C.3          1 VIV301   0.0000
    28 C26          1.9940    57.5050    13.8840 C.3          1 VIV301   0.0000
    29 C27          3.3440    58.0660    13.4860 C.3          1 VIV301   0.0000
    30 C28          3.8550    57.3440    12.2280 C.3          1 VIV301   0.0000
    31 C29          3.2460    59.5270    13.2750 C.3          1 VIV301   0.0000
    32 H1           4.0854    67.2373    13.5250 H            1 VIV301   0.0000
    33 H2           0.8130    55.1639    12.5167 H            1 VIV301   0.0000
    34 H3          -0.1944    54.0053    13.0728 H            1 VIV301   0.0000
    35 H4          -0.7577    55.1646    12.0701 H            1 VIV301   0.0000
    36 H5           4.4113    65.7551    14.0142 H            1 VIV301   0.0000
    37 H6           3.8377    64.6755    15.0968 H            1 VIV301   0.0000
    38 H7           4.1442    64.2089    13.5622 H            1 VIV301   0.0000
    39 H8           2.1061    62.9530    15.1532 H            1 VIV301   0.0000
    40 H9           2.0918    62.4343    13.6048 H            1 VIV301   0.0000
    41 H10          0.4430    61.2023    14.5982 H            1 VIV301   0.0000
    42 H11         -0.1161    62.4847    15.4405 H            1 VIV301   0.0000
    43 H12         -1.7021    67.4270    12.4025 H            1 VIV301   0.0000
    44 H13         -1.9855    65.8902    11.9286 H            1 VIV301   0.0000
    45 H14         -2.2496    66.3282    13.4794 H            1 VIV301   0.0000
    46 H15          1.4125    68.9687    12.4990 H            1 VIV301   0.0000
    47 H16          0.1865    68.4281    11.5655 H            1 VIV301   0.0000
    48 H17         -0.0993    68.8764    13.1096 H            1 VIV301   0.0000
    49 H18         -0.0202    61.0905    12.0391 H            1 VIV301   0.0000
    50 H19         -0.8985    62.2903    11.3641 H            1 VIV301   0.0000
    51 H20          0.6351    62.5740    11.8481 H            1 VIV301   0.0000
    52 H21         -2.6938    62.0172    12.9316 H            1 VIV301   0.0000
    53 H22         -2.4830    62.1740    14.5433 H            1 VIV301   0.0000
    54 H23         -1.4470    60.0332    14.6362 H            1 VIV301   0.0000
    55 H24         -1.5865    59.8798    13.0165 H            1 VIV301   0.0000
    56 H25         -4.0031    60.0026    13.2589 H            1 VIV301   0.0000
    57 H26         -3.8092    60.0225    14.8802 H            1 VIV301   0.0000
    58 H27         -2.9467    57.8262    13.2467 H            1 VIV301   0.0000
    59 H28         -4.9177    56.6994    13.9570 H            1 VIV301   0.0000
    60 H29         -5.4107    58.0559    14.7209 H            1 VIV301   0.0000
    61 H30         -5.2964    58.0318    13.0921 H            1 VIV301   0.0000
    62 H31         -3.3100    57.9974    16.0989 H            1 VIV301   0.0000
    63 H32         -1.8577    58.1054    15.3602 H            1 VIV301   0.0000
    64 H33         -3.4743    55.7843    15.6025 H            1 VIV301   0.0000
    65 H34         -2.0302    56.0496    16.3172 H            1 VIV301   0.0000
    66 H35         -2.4608    55.6015    13.5813 H            1 VIV301   0.0000
    67 H36         -1.8945    54.5070    14.6528 H            1 VIV301   0.0000
    68 H37         -0.4493    56.7821    13.6965 H            1 VIV301   0.0000
    69 H38          0.6168    54.7303    15.4151 H            1 VIV301   0.0000
    70 H39          0.2501    56.2386    15.9220 H            1 VIV301   0.0000
    71 H40          2.3973    55.4733    14.1325 H            1 VIV301   0.0000
    72 H41          2.5353    56.3264    15.5181 H            1 VIV301   0.0000
    73 H42          1.5301    58.2001    14.4332 H            1 VIV301   0.0000
    74 H43          1.4763    57.3439    13.0437 H            1 VIV301   0.0000
    75 H44          3.9888    57.8968    14.2314 H            1 VIV301   0.0000
    76 H45          4.7459    57.7168    11.9684 H            1 VIV301   0.0000
    77 H46          3.9453    56.3664    12.4183 H            1 VIV301   0.0000
    78 H47          3.2061    57.4793    11.4793 H            1 VIV301   0.0000
    79 H48          4.1415    59.8868    13.0130 H            1 VIV301   0.0000
    80 H49          2.5855    59.7153    12.5482 H            1 VIV301   0.0000
    81 H50          2.9448    59.9665    14.1212 H            1 VIV301   0.0000
@<TRIPOS>BOND
     1    1    6       1
     2    1   11       1
     3    2    9       1
     4    3   25       1
     5    4    5      ar
     6    4    9      ar
     7    4   10       1
     8    5    6      ar
     9    5   12       1
    10    6    7      ar
    11    7    8      ar
    12    7   14       1
    13    8    9      ar
    14    8   15       1
    15   11   13       1
    16   11   16       1
    17   11   17       1
    18   12   13       1
    19   17   18       1
    20   18   19       1
    21   19   20       1
    22   20   21       1
    23   20   22       1
    24   22   23       1
    25   23   24       1
    26   24   25       1
    27   25   26       1
    28   26   27       1
    29   27   28       1
    30   28   29       1
    31   29   30       1
    32   29   31       1
    33    2   32       1
    34    3   33       1
    35    3   34       1
    36    3   35       1
    37   10   36       1
    38   10   37       1
    39   10   38       1
    40   12   39       1
    41   12   40       1
    42   13   41       1
    43   13   42       1
    44   14   43       1
    45   14   44       1
    46   14   45       1
    47   15   46       1
    48   15   47       1
    49   15   48       1
    50   16   49       1
    51   16   50       1
    52   16   51       1
    53   17   52       1
    54   17   53       1
    55   18   54       1
    56   18   55       1
    57   19   56       1
    58   19   57       1
    59   20   58       1
    60   21   59       1
    61   21   60       1
    62   21   61       1
    63   22   62       1
    64   22   63       1
    65   23   64       1
    66   23   65       1
    67   24   66       1
    68   24   67       1
    69   25   68       1
    70   26   69       1
    71   26   70       1
    72   27   71       1
    73   27   72       1
    74   28   73       1
    75   28   74       1
    76   29   75       1
    77   30   76       1
    78   30   77       1
    79   30   78       1
    80   31   79       1
    81   31   80       1
    82   31   81       1
@<TRIPOS>SUBSTRUCTURE
     1 VIV301      1 GROUP             4 A     VIV     0 **** VIV A 301
