@<TRIPOS>MOLECULE
1sz3_GNP_1_ligand
   45    47     1     0     0
SMALL
NO_CHARGES


@<TRIPOS>ATOM
     1 PG          43.1050     5.7050    23.5380 P.3          1 GNP3030   0.0000
     2 O1G         44.4050     5.6020    22.6310 O.co2        1 GNP3030   0.0000
     3 O2G         41.9910     5.5520    23.3460 O.co2        1 GNP3030  -1.0000
     4 O3G         43.4420     7.4730    23.9420 O.co2        1 GNP3030  -1.0000
     5 N3B         43.7220     5.0070    24.9140 N.3          1 GNP3030   0.0000
     6 PB          42.7570     4.1270    25.8200 P.3          1 GNP3030   0.0000
     7 O1B         42.8950     2.7200    25.3850 O.co2        1 GNP3030   0.0000
     8 O2B         41.4080     4.6830    25.6570 O.co2        1 GNP3030  -1.0000
     9 O3A         43.1870     4.1980    27.3500 O.3          1 GNP3030   0.0000
    10 PA          43.5500     3.1270    28.5140 P.3          1 GNP3030   0.0000
    11 O1A         43.2110     1.7730    27.9850 O.co2        1 GNP3030   0.0000
    12 O2A         42.9170     3.5350    29.7920 O.co2        1 GNP3030  -1.0000
    13 O5'         45.1230     3.3080    28.5940 O.3          1 GNP3030   0.0000
    14 C5'         45.9830     2.3270    29.1740 C.3          1 GNP3030   0.0000
    15 C4'         46.7330     1.6100    28.0750 C.3          1 GNP3030   0.0000
    16 O4'         48.0690     1.2790    28.5100 O.3          1 GNP3030   0.0000
    17 C3'         46.1140     0.2840    27.6490 C.3          1 GNP3030   0.0000
    18 O3'         45.1310     0.4900    26.6370 O.3          1 GNP3030   0.0000
    19 C2'         47.2960    -0.5200    27.1640 C.3          1 GNP3030   0.0000
    20 O2'         47.4850    -0.2530    25.7740 O.3          1 GNP3030   0.0000
    21 C1'         48.4960     0.0660    27.8810 C.3          1 GNP3030   0.0000
    22 N9          49.0690    -0.7490    28.9550 N.pl3        1 GNP3030   0.0000
    23 C8          48.7600    -0.6460    30.2910 C.2          1 GNP3030   0.0000
    24 N7          49.4160    -1.4830    31.0430 N.2          1 GNP3030   0.0000
    25 C5          50.2180    -2.1860    30.1540 C.2          1 GNP3030   0.0000
    26 C6          51.1570    -3.2180    30.3920 C.2          1 GNP3030   0.0000
    27 O6          51.4820    -3.7580    31.4550 O.2          1 GNP3030   0.0000
    28 N1          51.7550    -3.6500    29.2110 N.2          1 GNP3030   0.0000
    29 C2          51.4800    -3.1320    27.9660 C.2          1 GNP3030   0.0000
    30 N2          52.1670    -3.6850    26.9570 N.pl3        1 GNP3030   0.0000
    31 N3          50.6140    -2.1640    27.7310 N.pl3        1 GNP3030   0.0000
    32 C4          50.0140    -1.7390    28.8670 C.2          1 GNP3030   0.0000
    33 H3B         44.0717     5.7471    25.4884 H            1 GNP3030   0.0000
    34 H5'1        45.4372     1.6678    29.6913 H            1 GNP3030   0.0000
    35 H5'2        46.6346     2.7740    29.7868 H            1 GNP3030   0.0000
    36 H4'         46.7916     2.2108    27.2778 H            1 GNP3030   0.0000
    37 H3'         45.6985    -0.1662    28.4394 H            1 GNP3030   0.0000
    38 H6          44.2383     0.6344    27.0639 H            1 GNP3030   0.0000
    39 H2'         47.1877    -1.4969    27.3482 H            1 GNP3030   0.0000
    40 H8          47.6588     0.7230    25.6427 H            1 GNP3030   0.0000
    41 H1'         49.2087     0.2760    27.2117 H            1 GNP3030   0.0000
    42 H10         48.0953     0.0088    30.6507 H            1 GNP3030   0.0000
    43 H11         52.0248    -3.3645    26.0205 H            1 GNP3030   0.0000
    44 H12         52.8218    -4.4181    27.1406 H            1 GNP3030   0.0000
    45 H13         50.4242    -1.7899    26.8232 H            1 GNP3030   0.0000
@<TRIPOS>BOND
     1    1    2      ar
     2    1    3      ar
     3    1    4      ar
     4    1    5       1
     5    5    6       1
     6    6    7      ar
     7    6    8      ar
     8    6    9       1
     9    9   10       1
    10   10   11      ar
    11   10   12      ar
    12   10   13       1
    13   13   14       1
    14   14   15       1
    15   15   16       1
    16   15   17       1
    17   16   21       1
    18   17   18       1
    19   17   19       1
    20   19   20       1
    21   19   21       1
    22   21   22       1
    23   22   23       1
    24   22   32       1
    25   23   24       2
    26   24   25       1
    27   25   26       1
    28   25   32       2
    29   26   27       2
    30   26   28       1
    31   28   29       2
    32   29   30       1
    33   29   31       1
    34   31   32       1
    35   30   44       1
    36   30   43       1
    37    5   33       1
    38   21   41       1
    39   23   42       1
    40   14   34       1
    41   14   35       1
    42   15   36       1
    43   17   37       1
    44   18   38       1
    45   19   39       1
    46   20   40       1
    47   31   45       1
@<TRIPOS>SUBSTRUCTURE
     1 GNP3030     1 GROUP             4 A     GNP     0 **** GNP A3030
