@<TRIPOS>MOLECULE
3w2f_NAD_2_ligand
   70    74     1     0     0
SMALL
NO_CHARGES


@<TRIPOS>ATOM
     1 PA          11.6580    -7.6940    13.5250 P.3          1 NAD302   0.0000
     2 O1A         11.6190    -8.7020    12.4250 O.co2        1 NAD302   0.0000
     3 O2A         12.7590    -8.0840    14.4750 O.co2        1 NAD302  -1.0000
     4 O5B         10.2440    -7.6750    14.2160 O.3          1 NAD302   0.0000
     5 C5B         10.0690    -6.8970    15.3560 C.3          1 NAD302   0.0000
     6 C4B          8.6940    -6.9040    15.8810 C.3          1 NAD302   0.0000
     7 O4B          7.8570    -6.5910    14.8260 O.3          1 NAD302   0.0000
     8 C3B          8.2760    -8.2830    16.2280 C.3          1 NAD302   0.0000
     9 O3B          8.7290    -8.6540    17.4930 O.3          1 NAD302   0.0000
    10 C2B          6.8810    -8.1920    16.1230 C.3          1 NAD302   0.0000
    11 O2B          6.2910    -7.6340    17.2980 O.3          1 NAD302   0.0000
    12 C1B          6.6720    -7.2790    14.9820 C.3          1 NAD302   0.0000
    13 N9A          6.4010    -8.0720    13.7910 N.pl3        1 NAD302   0.0000
    14 C8A          7.2730    -8.6440    12.9410 C.2          1 NAD302   0.0000
    15 N7A          6.5830    -9.3290    11.9950 N.2          1 NAD302   0.0000
    16 C5A          5.2440    -9.1920    12.2700 C.ar         1 NAD302   0.0000
    17 C6A          4.0540    -9.6720    11.6750 C.ar         1 NAD302   0.0000
    18 N6A          4.1230   -10.5000    10.4980 N.pl3        1 NAD302   0.0000
    19 N1A          2.8260    -9.3520    12.2200 N.ar         1 NAD302   0.0000
    20 C2A          2.7490    -8.5820    13.3330 C.ar         1 NAD302   0.0000
    21 N3A          3.8420    -8.1180    13.9230 N.ar         1 NAD302   0.0000
    22 C4A          5.1240    -8.4080    13.4080 C.ar         1 NAD302   0.0000
    23 O3          11.8380    -6.2450    12.9800 O.3          1 NAD302   0.0000
    24 PN          13.1330    -5.5820    12.3350 P.3          1 NAD302   0.0000
    25 O1N         14.0340    -6.5680    11.5980 O.co2        1 NAD302   0.0000
    26 O2N         13.9830    -4.8570    13.3250 O.co2        1 NAD302  -1.0000
    27 O5D         12.5740    -4.6060    11.2600 O.3          1 NAD302   0.0000
    28 C5D         12.1830    -3.2960    11.5310 C.3          1 NAD302   0.0000
    29 C4D         11.2250    -2.7710    10.5720 C.3          1 NAD302   0.0000
    30 O4D         10.9380    -1.3870    10.9040 O.3          1 NAD302   0.0000
    31 C3D         11.6590    -2.8270     9.1490 C.3          1 NAD302   0.0000
    32 O3D         10.6180    -3.1400     8.3170 O.3          1 NAD302   0.0000
    33 C2D         12.1040    -1.4400     8.8950 C.3          1 NAD302   0.0000
    34 O2D         12.0250    -1.0140     7.5870 O.3          1 NAD302   0.0000
    35 C1D         11.1570    -0.6400     9.7230 C.3          1 NAD302   0.0000
    36 N1N         11.5370     0.8390    10.0440 N.ar         1 NAD302   1.0000
    37 C2N         10.8420     1.8440     9.4590 C.ar         1 NAD302   0.0000
    38 C3N         11.2020     3.1870     9.7610 C.ar         1 NAD302   0.0000
    39 C7N         10.4150     4.3060     9.1470 C.2          1 NAD302   0.0000
    40 O7N         10.6600     5.4610     9.5210 O.2          1 NAD302   0.0000
    41 N7N          9.3850     4.0240     8.1820 N.am         1 NAD302   0.0000
    42 C4N         12.2420     3.4400    10.6590 C.ar         1 NAD302   0.0000
    43 C5N         12.9530     2.3530    11.2560 C.ar         1 NAD302   0.0000
    44 C6N         12.5590     1.0460    10.9060 C.ar         1 NAD302   0.0000
    45 H5B1        10.3158    -5.9538    15.1338 H            1 NAD302   0.0000
    46 H5B2        10.6794    -7.2422    16.0689 H            1 NAD302   0.0000
    47 H4B          8.5821    -6.2733    16.6489 H            1 NAD302   0.0000
    48 H3B          8.6247    -8.9234    15.5437 H            1 NAD302   0.0000
    49 H5           8.4299    -9.5868    17.6938 H            1 NAD302   0.0000
    50 H2B          6.4868    -9.0900    15.9277 H            1 NAD302   0.0000
    51 H7           5.2988    -7.5867    17.1825 H            1 NAD302   0.0000
    52 H1B          5.9181    -6.6484    15.1666 H            1 NAD302   0.0000
    53 H8A          8.2690    -8.5753    12.9975 H            1 NAD302   0.0000
    54 H6A1         3.2826   -10.8402    10.0760 H            1 NAD302   0.0000
    55 H6A2         5.0113   -10.7345    10.1030 H            1 NAD302   0.0000
    56 H2A          1.8522    -8.3601    13.7158 H            1 NAD302   0.0000
    57 H5D1        12.9957    -2.7134    11.5190 H            1 NAD302   0.0000
    58 H5D2        11.7680    -3.2705    12.4405 H            1 NAD302   0.0000
    59 H4D         10.3775    -3.2945    10.6599 H            1 NAD302   0.0000
    60 H3D         12.4150    -3.4710     9.0319 H            1 NAD302   0.0000
    61 H17          9.9031    -2.4460     8.4020 H            1 NAD302   0.0000
    62 H2D         13.0365    -1.3169     9.2345 H            1 NAD302   0.0000
    63 H19         12.5948    -1.5998     7.0107 H            1 NAD302   0.0000
    64 H1D         10.2879    -0.6160     9.2290 H            1 NAD302   0.0000
    65 H2N         10.0917     1.6461     8.8282 H            1 NAD302   0.0000
    66 H7N1         8.8625     4.7732     7.7750 H            1 NAD302   0.0000
    67 H7N2         9.1919     3.0788     7.9186 H            1 NAD302   0.0000
    68 H4N         12.4892     4.3824    10.8843 H            1 NAD302   0.0000
    69 H5N         13.7023     2.5141    11.8983 H            1 NAD302   0.0000
    70 H6N         13.0403     0.2626    11.2993 H            1 NAD302   0.0000
@<TRIPOS>BOND
     1    1    2      ar
     2    1    3      ar
     3    1    4       1
     4    1   23       1
     5    4    5       1
     6    5    6       1
     7    6    7       1
     8    6    8       1
     9    7   12       1
    10    8    9       1
    11    8   10       1
    12   10   11       1
    13   10   12       1
    14   12   13       1
    15   13   14       1
    16   13   22       1
    17   14   15       2
    18   15   16       1
    19   16   17      ar
    20   16   22      ar
    21   17   18       1
    22   17   19      ar
    23   19   20      ar
    24   20   21      ar
    25   21   22      ar
    26   23   24       1
    27   24   25      ar
    28   24   26      ar
    29   24   27       1
    30   27   28       1
    31   28   29       1
    32   29   30       1
    33   29   31       1
    34   30   35       1
    35   31   32       1
    36   31   33       1
    37   33   34       1
    38   33   35       1
    39   35   36       1
    40   36   37      ar
    41   36   44      ar
    42   37   38      ar
    43   38   39       1
    44   38   42      ar
    45   39   40       2
    46   39   41      am
    47   42   43      ar
    48   43   44      ar
    49   44   70       1
    50    5   45       1
    51    5   46       1
    52    6   47       1
    53    8   48       1
    54    9   49       1
    55   10   50       1
    56   11   51       1
    57   12   52       1
    58   14   53       1
    59   18   54       1
    60   18   55       1
    61   20   56       1
    62   43   69       1
    63   28   57       1
    64   28   58       1
    65   29   59       1
    66   31   60       1
    67   32   61       1
    68   33   62       1
    69   34   63       1
    70   35   64       1
    71   37   65       1
    72   41   66       1
    73   41   67       1
    74   42   68       1
@<TRIPOS>SUBSTRUCTURE
     1 NAD302      1 GROUP             4 A     NAD     0 **** NAD A 302
