@<TRIPOS>MOLECULE
3rkr_NAP_1_ligand
   42    44     1     0     0
SMALL
NO_CHARGES


@<TRIPOS>ATOM
     1 PA          31.3040   -66.7480   -30.4130 P.3          1 NAP240   0.0000
     2 O1A         29.7010   -66.8450   -30.2490 O.co2        1 NAP240   0.0000
     3 O2A         31.7530   -65.4940   -29.7550 O.co2        1 NAP240  -1.0000
     4 O5B         31.6360   -66.6450   -32.0050 O.3          1 NAP240   0.0000
     5 C5B         31.7510   -65.2800   -32.4810 C.3          1 NAP240   0.0000
     6 C4B         31.1110   -65.1070   -33.8720 C.3          1 NAP240   0.0000
     7 O4B         31.4560   -66.2720   -34.6800 O.3          1 NAP240   0.0000
     8 C3B         29.5550   -65.0550   -33.6870 C.3          1 NAP240   0.0000
     9 O3B         28.8120   -64.1460   -34.5210 O.3          1 NAP240   0.0000
    10 C2B         29.1060   -66.4780   -34.0330 C.3          1 NAP240   0.0000
    11 O2B         27.8490   -66.3840   -34.6780 O.3          1 NAP240   0.0000
    12 C1B         30.2180   -67.0180   -34.9770 C.3          1 NAP240   0.0000
    13 N9A         30.2750   -68.4870   -34.7890 N.pl3        1 NAP240   0.0000
    14 C8A         30.7200   -69.1820   -33.7090 C.2          1 NAP240   0.0000
    15 N7A         30.5510   -70.4730   -33.9070 N.2          1 NAP240   0.0000
    16 C5A         29.9700   -70.6990   -35.1120 C.ar         1 NAP240   0.0000
    17 C6A         29.5530   -71.8670   -35.8620 C.ar         1 NAP240   0.0000
    18 N6A         29.6840   -73.1860   -35.4280 N.pl3        1 NAP240   0.0000
    19 N1A         29.0160   -71.6700   -37.0550 N.ar         1 NAP240   0.0000
    20 C2A         28.8420   -70.4250   -37.5170 C.ar         1 NAP240   0.0000
    21 N3A         29.2070   -69.3120   -36.8690 N.ar         1 NAP240   0.0000
    22 C4A         29.7840   -69.4100   -35.6750 C.ar         1 NAP240   0.0000
    23 O3          31.9790   -68.0670   -29.7100 O.3          1 NAP240   0.0000
    24 PN          33.2370   -67.8350   -28.6640 P.3          1 NAP240   0.0000
    25 O1N         34.2100   -66.6250   -29.1460 O.co2        1 NAP240   0.0000
    26 O2N         32.6250   -67.5310   -27.1960 O.co2        1 NAP240  -1.0000
    27 O5D         34.0480   -69.0660   -28.5220 O.co2        1 NAP240  -1.0000
    28 P2B         26.7970   -67.0510   -33.6690 P.3          1 NAP240   0.0000
    29 O1X         25.2790   -66.7330   -34.0530 O.co2        1 NAP240   0.0000
    30 O2X         26.9880   -68.6460   -33.6770 O.co2        1 NAP240  -1.0000
    31 O3X         27.0720   -66.6000   -32.2880 O.co2        1 NAP240  -1.0000
    32 H5B1        32.7193   -65.0366   -32.5370 H            1 NAP240   0.0000
    33 H5B2        31.2911   -64.6713   -31.8345 H            1 NAP240   0.0000
    34 H4B         31.4402   -64.2690   -34.3072 H            1 NAP240   0.0000
    35 H3B         29.3441   -64.8679   -32.7276 H            1 NAP240   0.0000
    36 H5          28.5403   -64.6124   -35.3628 H            1 NAP240   0.0000
    37 H2B         29.0393   -67.0387   -33.2076 H            1 NAP240   0.0000
    38 H1B         29.9520   -66.8287   -35.9222 H            1 NAP240   0.0000
    39 H8A         31.1166   -68.7739   -32.8867 H            1 NAP240   0.0000
    40 H6A1        29.3696   -73.9370   -36.0087 H            1 NAP240   0.0000
    41 H6A2        30.0923   -73.3807   -34.5362 H            1 NAP240   0.0000
    42 H2A         28.4076   -70.3191   -38.4115 H            1 NAP240   0.0000
@<TRIPOS>BOND
     1    1    2      ar
     2    1    3      ar
     3    1    4       1
     4    1   23       1
     5    4    5       1
     6    5    6       1
     7    6    7       1
     8    6    8       1
     9    7   12       1
    10    8    9       1
    11    8   10       1
    12   10   11       1
    13   10   12       1
    14   11   28       1
    15   12   13       1
    16   13   14       1
    17   13   22       1
    18   14   15       2
    19   15   16       1
    20   16   17      ar
    21   16   22      ar
    22   17   18       1
    23   17   19      ar
    24   19   20      ar
    25   20   21      ar
    26   21   22      ar
    27   23   24       1
    28   24   25      ar
    29   24   26      ar
    30   24   27      ar
    31   28   29      ar
    32   28   30      ar
    33   28   31      ar
    34   20   42       1
    35    5   32       1
    36    5   33       1
    37    6   34       1
    38    8   35       1
    39    9   36       1
    40   10   37       1
    41   12   38       1
    42   14   39       1
    43   18   40       1
    44   18   41       1
@<TRIPOS>SUBSTRUCTURE
     1 NAP240      1 GROUP             4 A     NAP     0 **** NAP A 240
