@<TRIPOS>MOLECULE
2par_TMP_1_ligand
   34    35     1     0     0
SMALL
NO_CHARGES


@<TRIPOS>ATOM
     1 P          -21.5220    -8.3930     6.7390 P.3          1 TMP301   0.0000
     2 O1P        -22.9310    -8.2640     6.1470 O.co2        1 TMP301   0.0000
     3 O2P        -21.4390    -8.6770     8.2760 O.co2        1 TMP301  -1.0000
     4 O3P        -20.6710    -9.3680     5.9670 O.co2        1 TMP301  -1.0000
     5 O5'        -20.7740    -6.9410     6.6320 O.3          1 TMP301   0.0000
     6 C5'        -21.1730    -5.8430     5.8040 C.3          1 TMP301   0.0000
     7 C4'        -20.3460    -4.5740     6.1100 C.3          1 TMP301   0.0000
     8 O4'        -20.7270    -4.1480     7.4100 O.3          1 TMP301   0.0000
     9 C3'        -18.8330    -4.7440     6.1740 C.3          1 TMP301   0.0000
    10 O3'        -18.1240    -3.5970     5.7030 O.3          1 TMP301   0.0000
    11 C2'        -18.4700    -4.8530     7.6530 C.3          1 TMP301   0.0000
    12 C1'        -19.5800    -4.0370     8.2900 C.3          1 TMP301   0.0000
    13 N1         -20.0170    -4.5000     9.6170 N.pl3        1 TMP301   0.0000
    14 C2         -20.0810    -3.5440    10.6760 C.2          1 TMP301   0.0000
    15 O2         -19.6970    -2.3500    10.4970 O.2          1 TMP301   0.0000
    16 N3         -20.5260    -3.9010    11.8890 N.pl3        1 TMP301   0.0000
    17 C4         -20.9320    -5.1540    12.1210 C.2          1 TMP301   0.0000
    18 O4         -21.3020    -5.4850    13.2560 O.2          1 TMP301   0.0000
    19 C5         -20.9060    -6.1690    11.0350 C.2          1 TMP301   0.0000
    20 C5M        -21.3770    -7.5930    11.3100 C.3          1 TMP301   0.0000
    21 C6         -20.4340    -5.7700     9.7980 C.2          1 TMP301   0.0000
    22 H5'1       -22.1402    -5.6478     5.9668 H            1 TMP301   0.0000
    23 H5'2       -21.0404    -6.0940     4.8451 H            1 TMP301   0.0000
    24 H4'        -20.5729    -3.8611     5.4465 H            1 TMP301   0.0000
    25 H3'        -18.5479    -5.5644     5.6783 H            1 TMP301   0.0000
    26 H5         -18.3705    -3.4209     4.7500 H            1 TMP301   0.0000
    27 H2'1       -17.5708    -4.4573     7.8398 H            1 TMP301   0.0000
    28 H2'2       -18.4877    -5.8027     7.9656 H            1 TMP301   0.0000
    29 H1'        -19.2972    -3.0796     8.3484 H            1 TMP301   0.0000
    30 H9         -20.5546    -3.2255    12.6258 H            1 TMP301   0.0000
    31 H5M1       -21.2926    -8.1389    10.4764 H            1 TMP301   0.0000
    32 H5M2       -20.8142    -7.9968    12.0313 H            1 TMP301   0.0000
    33 H5M3       -22.3331    -7.5772    11.6027 H            1 TMP301   0.0000
    34 H13        -20.4019    -6.4212     9.0397 H            1 TMP301   0.0000
@<TRIPOS>BOND
     1    1    2      ar
     2    1    3      ar
     3    1    4      ar
     4    1    5       1
     5    5    6       1
     6    6    7       1
     7    7    8       1
     8    7    9       1
     9    8   12       1
    10    9   10       1
    11    9   11       1
    12   11   12       1
    13   12   13       1
    14   13   14       1
    15   13   21       1
    16   14   15       2
    17   14   16       1
    18   16   17       1
    19   17   18       2
    20   17   19       1
    21   19   20       1
    22   19   21       2
    23   21   34       1
    24   20   33       1
    25    6   22       1
    26    6   23       1
    27    7   24       1
    28    9   25       1
    29   10   26       1
    30   11   27       1
    31   11   28       1
    32   12   29       1
    33   16   30       1
    34   20   31       1
    35   20   32       1
@<TRIPOS>SUBSTRUCTURE
     1 TMP301      1 GROUP             4 A     TMP     0 **** TMP A 301
