@<TRIPOS>MOLECULE
4o9c_COA_1_ligand
   80    82     1     0     0
SMALL
NO_CHARGES


@<TRIPOS>ATOM
     1 N1A        -44.7080    48.4860    26.3560 N.ar         1 COA401   0.0000
     2 C2A        -44.6330    48.7580    25.0350 C.ar         1 COA401   0.0000
     3 N3A        -44.8640    47.8150    24.0780 N.ar         1 COA401   0.0000
     4 C4A        -45.1910    46.5090    24.3750 C.ar         1 COA401   0.0000
     5 C5A        -45.2860    46.1620    25.8060 C.ar         1 COA401   0.0000
     6 C6A        -45.0210    47.2320    26.7930 C.ar         1 COA401   0.0000
     7 N6A        -45.1110    46.8940    28.0970 N.pl3        1 COA401   0.0000
     8 N7A        -45.6140    44.8600    25.8930 N.2          1 COA401   0.0000
     9 C8A        -45.7250    44.3840    24.6280 C.2          1 COA401   0.0000
    10 N9A        -45.4780    45.3490    23.7130 N.pl3        1 COA401   0.0000
    11 C1B        -45.5400    45.0990    22.2300 C.3          1 COA401   0.0000
    12 C2B        -44.5190    44.0780    21.7270 C.3          1 COA401   0.0000
    13 O2B        -43.2220    44.6690    21.5750 O.3          1 COA401   0.0000
    14 C3B        -45.1190    43.5340    20.4230 C.3          1 COA401   0.0000
    15 O3B        -44.5640    44.1320    19.2340 O.3          1 COA401   0.0000
    16 P3B        -43.2700    43.6280    18.3780 P.3          1 COA401   0.0000
    17 O7A        -43.2180    44.5220    17.1540 O.co2        1 COA401   0.0000
    18 O8A        -43.5710    42.1880    18.0340 O.co2        1 COA401  -1.0000
    19 O9A        -42.0870    43.8450    19.2940 O.co2        1 COA401  -1.0000
    20 C4B        -46.6140    43.8690    20.5280 C.3          1 COA401   0.0000
    21 O4B        -46.7910    44.5270    21.7960 O.3          1 COA401   0.0000
    22 C5B        -47.5500    42.6630    20.3700 C.3          1 COA401   0.0000
    23 O5B        -47.6100    41.8560    21.5590 O.3          1 COA401   0.0000
    24 P1A        -48.2140    40.3390    21.6040 P.3          1 COA401   0.0000
    25 O1A        -49.5360    40.4240    22.3480 O.co2        1 COA401   0.0000
    26 O2A        -48.2540    39.8540    20.1730 O.co2        1 COA401  -1.0000
    27 O3A        -47.1360    39.4470    22.5040 O.3          1 COA401   0.0000
    28 P2A        -46.3900    37.9760    22.2730 P.3          1 COA401   0.0000
    29 O4A        -45.1140    37.8240    23.0850 O.co2        1 COA401   0.0000
    30 O5A        -46.3080    37.6550    20.7980 O.co2        1 COA401  -1.0000
    31 O6A        -47.3600    36.9000    22.9690 O.3          1 COA401   0.0000
    32 CBP        -48.7100    36.1650    24.8310 C.3          1 COA401   0.0000
    33 CCP        -48.0810    37.3340    24.1060 C.3          1 COA401   0.0000
    34 CDP        -49.4340    36.8780    25.9740 C.3          1 COA401   0.0000
    35 CEP        -49.5950    35.3920    23.8380 C.3          1 COA401   0.0000
    36 CAP        -47.6510    35.1740    25.3470 C.3          1 COA401   0.0000
    37 OAP        -46.4100    35.8820    25.5100 O.3          1 COA401   0.0000
    38 C9P        -48.0820    34.3910    26.6020 C.2          1 COA401   0.0000
    39 O9P        -48.5430    33.2720    26.4540 O.2          1 COA401   0.0000
    40 N8P        -47.9450    34.9050    27.8390 N.am         1 COA401   0.0000
    41 C7P        -48.2530    34.2110    29.0860 C.3          1 COA401   0.0000
    42 C6P        -47.1680    33.1830    29.5150 C.3          1 COA401   0.0000
    43 C5P        -47.8320    31.8620    29.4810 C.2          1 COA401   0.0000
    44 O5P        -48.8780    31.8680    28.8110 O.2          1 COA401   0.0000
    45 N4P        -47.4390    30.8470    30.2580 N.am         1 COA401   0.0000
    46 C3P        -48.3600    29.6370    30.6950 C.3          1 COA401   0.0000
    47 C2P        -49.2960    29.6660    31.9640 C.3          1 COA401   0.0000
    48 S1P        -49.0870    28.8820    33.7280 S.3          1 COA401   0.0000
    49 H2A        -44.3990    49.6869    24.7480 H            1 COA401   0.0000
    50 H6A1       -45.3446    45.9567    28.3556 H            1 COA401   0.0000
    51 H6A2       -44.9440    47.5810    28.8043 H            1 COA401   0.0000
    52 H8A        -45.9598    43.4390    24.4004 H            1 COA401   0.0000
    53 H1B        -45.3959    45.9642    21.7497 H            1 COA401   0.0000
    54 H2B        -44.4571    43.3313    22.3892 H            1 COA401   0.0000
    55 H7         -42.7281    44.2045    20.8400 H            1 COA401   0.0000
    56 H3B        -44.9992    42.5419    20.3868 H            1 COA401   0.0000
    57 H4B        -46.8338    44.5260    19.8068 H            1 COA401   0.0000
    58 H5B1       -47.2201    42.0973    19.6142 H            1 COA401   0.0000
    59 H5B2       -48.4696    42.9955    20.1608 H            1 COA401   0.0000
    60 HCP1       -48.8013    37.9637    23.8152 H            1 COA401   0.0000
    61 HCP2       -47.4565    37.8063    24.7280 H            1 COA401   0.0000
    62 HDP1       -49.9029    36.2032    26.5439 H            1 COA401   0.0000
    63 HDP2       -48.7694    37.3787    26.5287 H            1 COA401   0.0000
    64 HDP3       -50.1031    37.5183    25.5968 H            1 COA401   0.0000
    65 HEP1       -50.0183    34.6149    24.3038 H            1 COA401   0.0000
    66 HEP2       -50.3080    35.9980    23.4853 H            1 COA401   0.0000
    67 HEP3       -49.0339    35.0607    23.0794 H            1 COA401   0.0000
    68 HAP        -47.5069    34.5010    24.6215 H            1 COA401   0.0000
    69 H21        -46.1244    36.2610    24.6298 H            1 COA401   0.0000
    70 H8P        -47.6031    35.8421    27.9096 H            1 COA401   0.0000
    71 H7P1       -49.1197    33.7256    28.9712 H            1 COA401   0.0000
    72 H7P2       -48.3463    34.8926    29.8117 H            1 COA401   0.0000
    73 H6P1       -46.8417    33.3855    30.4383 H            1 COA401   0.0000
    74 H6P2       -46.3978    33.2025    28.8775 H            1 COA401   0.0000
    75 H4P        -46.4946    30.8532    30.5866 H            1 COA401   0.0000
    76 H3P1       -47.7447    28.8599    30.8276 H            1 COA401   0.0000
    77 H3P2       -48.9614    29.4570    29.9166 H            1 COA401   0.0000
    78 H2P1       -50.1578    29.2816    31.6331 H            1 COA401   0.0000
    79 H2P2       -49.4155    30.6413    32.1495 H            1 COA401   0.0000
    80 H1P        -49.9873    28.6642    34.1048 H            1 COA401   0.0000
@<TRIPOS>BOND
     1    1    2      ar
     2    1    6      ar
     3    2    3      ar
     4    3    4      ar
     5    4    5      ar
     6    4   10       1
     7    5    6      ar
     8    5    8       1
     9    6    7       1
    10    8    9       2
    11    9   10       1
    12   10   11       1
    13   11   12       1
    14   11   21       1
    15   12   13       1
    16   12   14       1
    17   14   15       1
    18   14   20       1
    19   15   16       1
    20   16   17      ar
    21   16   18      ar
    22   16   19      ar
    23   20   21       1
    24   20   22       1
    25   22   23       1
    26   23   24       1
    27   24   25      ar
    28   24   26      ar
    29   24   27       1
    30   27   28       1
    31   28   29      ar
    32   28   30      ar
    33   28   31       1
    34   31   33       1
    35   32   33       1
    36   32   34       1
    37   32   35       1
    38   32   36       1
    39   36   37       1
    40   36   38       1
    41   38   39       2
    42   38   40      am
    43   40   41       1
    44   41   42       1
    45   42   43       1
    46   43   44       2
    47   43   45      am
    48   45   46       1
    49   46   47       1
    50   47   48       1
    51    2   49       1
    52    7   50       1
    53    7   51       1
    54    9   52       1
    55   11   53       1
    56   12   54       1
    57   13   55       1
    58   14   56       1
    59   48   80       1
    60   47   79       1
    61   20   57       1
    62   22   58       1
    63   22   59       1
    64   47   78       1
    65   46   77       1
    66   33   60       1
    67   33   61       1
    68   34   62       1
    69   34   63       1
    70   34   64       1
    71   35   65       1
    72   35   66       1
    73   35   67       1
    74   36   68       1
    75   37   69       1
    76   40   70       1
    77   41   71       1
    78   41   72       1
    79   42   73       1
    80   42   74       1
    81   45   75       1
    82   46   76       1
@<TRIPOS>SUBSTRUCTURE
     1 COA401      1 GROUP             4 C     COA     0 **** COA C 401
