@<TRIPOS>MOLECULE
4a0s_CO8_4_ligand
  101   103     1     0     0
SMALL
NO_CHARGES


@<TRIPOS>ATOM
     1 N1A         -6.6760    25.0890    59.4220 N.ar         1 CO81446   0.0000
     2 C2A         -7.6470    24.9900    58.5180 C.ar         1 CO81446   0.0000
     3 N3A         -7.3800    24.8820    57.2190 N.ar         1 CO81446   0.0000
     4 C4A         -6.1050    24.8720    56.7810 C.ar         1 CO81446   0.0000
     5 C5A         -5.0660    24.9750    57.7000 C.ar         1 CO81446   0.0000
     6 C6A         -5.3800    25.0870    59.0540 C.ar         1 CO81446   0.0000
     7 N6A         -4.4200    25.1840    59.9730 N.pl3        1 CO81446   0.0000
     8 N7A         -3.9220    24.9410    57.0200 N.2          1 CO81446   0.0000
     9 C8A         -4.2240    24.8220    55.7270 C.2          1 CO81446   0.0000
    10 N9A         -5.5550    24.7870    55.5710 N.pl3        1 CO81446   0.0000
    11 C1B         -6.2950    24.6410    54.2640 C.3          1 CO81446   0.0000
    12 C2B         -6.2600    25.8530    53.3200 C.3          1 CO81446   0.0000
    13 O2B         -7.5510    26.0200    52.7130 O.3          1 CO81446   0.0000
    14 C3B         -5.2170    25.4570    52.2720 C.3          1 CO81446   0.0000
    15 O3B         -5.5470    26.0010    50.9900 O.3          1 CO81446   0.0000
    16 P3B         -4.5550    27.0500    50.2590 P.3          1 CO81446   0.0000
    17 O7A         -4.3500    28.2460    51.3360 O.co2        1 CO81446   0.0000
    18 O8A         -3.1260    26.3000    50.1240 O.co2        1 CO81446  -1.0000
    19 O9A         -5.1060    27.4960    48.9570 O.co2        1 CO81446  -1.0000
    20 C4B         -5.3850    23.9510    52.1910 C.3          1 CO81446   0.0000
    21 O4B         -5.6310    23.5380    53.5580 O.3          1 CO81446   0.0000
    22 C5B         -4.1120    23.3120    51.5840 C.3          1 CO81446   0.0000
    23 O5B         -4.3080    21.9130    51.2590 O.3          1 CO81446   0.0000
    24 P1A         -5.0680    21.4260    49.8870 P.3          1 CO81446   0.0000
    25 O1A         -4.8790    19.8070    49.8360 O.co2        1 CO81446   0.0000
    26 O2A         -6.4970    21.8380    49.8400 O.co2        1 CO81446  -1.0000
    27 O3A         -4.2570    22.0550    48.6050 O.3          1 CO81446   0.0000
    28 P2A         -3.2830    21.1980    47.6050 P.3          1 CO81446   0.0000
    29 O4A         -2.4360    22.3300    46.8340 O.co2        1 CO81446   0.0000
    30 O5A         -3.9610    20.2500    46.6630 O.co2        1 CO81446  -1.0000
    31 O6A         -2.1990    20.4520    48.5440 O.3          1 CO81446   0.0000
    32 CBP         -0.8960    18.5930    49.4210 C.3          1 CO81446   0.0000
    33 CCP         -1.7770    19.1060    48.2790 C.3          1 CO81446   0.0000
    34 CDP          0.3580    19.4800    49.4730 C.3          1 CO81446   0.0000
    35 CEP         -0.5110    17.1410    49.0970 C.3          1 CO81446   0.0000
    36 CAP         -1.7090    18.7000    50.7450 C.3          1 CO81446   0.0000
    37 OAP         -3.0020    18.0830    50.5870 O.3          1 CO81446   0.0000
    38 C9P         -1.0050    18.0080    51.9160 C.2          1 CO81446   0.0000
    39 O9P          0.0070    18.4880    52.4420 O.2          1 CO81446   0.0000
    40 N8P         -1.5940    16.8640    52.2660 N.am         1 CO81446   0.0000
    41 C7P         -1.0900    15.9850    53.3160 C.3          1 CO81446   0.0000
    42 C6P          0.1780    15.3050    52.7910 C.3          1 CO81446   0.0000
    43 C5P          1.0830    14.9820    53.9760 C.2          1 CO81446   0.0000
    44 O5P          1.8710    15.8180    54.4230 O.2          1 CO81446   0.0000
    45 N4P          0.9170    13.7680    54.4980 N.am         1 CO81446   0.0000
    46 C3P         -0.0370    12.7870    53.9580 C.3          1 CO81446   0.0000
    47 C2P          0.2760    11.4400    54.5830 C.3          1 CO81446   0.0000
    48 S1P          1.6800    10.5780    53.7640 S.3          1 CO81446   0.0000
    49 C1'          1.3320     9.0430    54.4590 C.2          1 CO81446   0.0000
    50 O1'          1.7090     8.8080    55.6120 O.3          1 CO81446   0.0000
    51 C2'          0.5770     8.1490    53.7040 C.2          1 CO81446   0.0000
    52 C3'          0.2420     6.8850    54.1790 C.2          1 CO81446   0.0000
    53 C4'         -0.4660     5.9460    53.4160 C.2          1 CO81446   0.0000
    54 C5'         -1.0080     6.4370    52.0690 C.3          1 CO81446   0.0000
    55 C6'         -1.9990     5.4120    51.4870 C.3          1 CO81446   0.0000
    56 C7'         -2.7360     6.0900    50.3440 C.3          1 CO81446   0.0000
    57 C8'         -3.6550     5.0920    49.6620 C.3          1 CO81446   0.0000
    58 H2A         -8.5997    24.9969    58.8218 H            1 CO81446   0.0000
    59 H6A1        -3.4595    25.1821    59.6948 H            1 CO81446   0.0000
    60 H6A2        -4.6601    25.2587    60.9409 H            1 CO81446   0.0000
    61 H8A         -3.5569    24.7670    54.9840 H            1 CO81446   0.0000
    62 H1B         -7.2458    24.3918    54.4478 H            1 CO81446   0.0000
    63 H2B         -5.9827    26.6806    53.8080 H            1 CO81446   0.0000
    64 H7          -7.4641    25.9475    51.7194 H            1 CO81446   0.0000
    65 H3B         -4.2924    25.7116    52.5553 H            1 CO81446   0.0000
    66 H4B         -6.1778    23.7295    51.6232 H            1 CO81446   0.0000
    67 H5B1        -3.3658    23.3882    52.2454 H            1 CO81446   0.0000
    68 H5B2        -3.8693    23.8063    50.7493 H            1 CO81446   0.0000
    69 HCP1        -1.2565    19.0851    47.4254 H            1 CO81446   0.0000
    70 HCP2        -2.5817    18.5185    48.1932 H            1 CO81446   0.0000
    71 HDP1         0.9559    19.1690    50.2118 H            1 CO81446   0.0000
    72 HDP2         0.8454    19.4195    48.6019 H            1 CO81446   0.0000
    73 HDP3         0.0886    20.4286    49.6391 H            1 CO81446   0.0000
    74 HEP1         0.0667    16.7782    49.8282 H            1 CO81446   0.0000
    75 HEP2        -1.3392    16.5858    49.0200 H            1 CO81446   0.0000
    76 HEP3        -0.0100    17.1141    48.2320 H            1 CO81446   0.0000
    77 HAP         -1.8366    19.6661    50.9693 H            1 CO81446   0.0000
    78 H21         -3.6591    18.7641    50.2640 H            1 CO81446   0.0000
    79 H8P         -2.4266    16.5937    51.7825 H            1 CO81446   0.0000
    80 H7P1        -1.7778    15.2947    53.5406 H            1 CO81446   0.0000
    81 H7P2        -0.8754    16.5199    54.1332 H            1 CO81446   0.0000
    82 H6P1         0.6537    15.9192    52.1613 H            1 CO81446   0.0000
    83 H6P2        -0.0655    14.4610    52.3131 H            1 CO81446   0.0000
    84 H4P          1.4660    13.5116    55.2935 H            1 CO81446   0.0000
    85 H3P1         0.0590    12.7311    52.9642 H            1 CO81446   0.0000
    86 H3P2        -0.9713    13.0594    54.1878 H            1 CO81446   0.0000
    87 H2P1        -0.5365    10.8609    54.5160 H            1 CO81446   0.0000
    88 H2P2         0.5064    11.5810    55.5458 H            1 CO81446   0.0000
    89 H1'          1.5148     7.9208    56.0305 H            1 CO81446   0.0000
    90 H2'          0.2666     8.4236    52.7939 H            1 CO81446   0.0000
    91 H3'          0.5188     6.6349    55.1068 H            1 CO81446   0.0000
    92 H4'         -0.6094     5.0084    53.7328 H            1 CO81446   0.0000
    93 H5'1        -0.2471     6.5590    51.4317 H            1 CO81446   0.0000
    94 H5'2        -1.4761     7.3108    52.2004 H            1 CO81446   0.0000
    95 H6'1        -2.6490     5.1271    52.1915 H            1 CO81446   0.0000
    96 H6'2        -1.5036     4.6124    51.1476 H            1 CO81446   0.0000
    97 H7'1        -2.0729     6.4377    49.6811 H            1 CO81446   0.0000
    98 H7'2        -3.2784     6.8497    50.7028 H            1 CO81446   0.0000
    99 H8'1        -4.1376     5.5425    48.9109 H            1 CO81446   0.0000
   100 H8'2        -3.1136     4.3322    49.3022 H            1 CO81446   0.0000
   101 H8'3        -4.3191     4.7441    50.3238 H            1 CO81446   0.0000
@<TRIPOS>BOND
     1    1    2      ar
     2    1    6      ar
     3    2    3      ar
     4    3    4      ar
     5    4    5      ar
     6    4   10       1
     7    5    6      ar
     8    5    8       1
     9    6    7       1
    10    8    9       2
    11    9   10       1
    12   10   11       1
    13   11   12       1
    14   11   21       1
    15   12   13       1
    16   12   14       1
    17   14   15       1
    18   14   20       1
    19   15   16       1
    20   16   17      ar
    21   16   18      ar
    22   16   19      ar
    23   20   21       1
    24   20   22       1
    25   22   23       1
    26   23   24       1
    27   24   25      ar
    28   24   26      ar
    29   24   27       1
    30   27   28       1
    31   28   29      ar
    32   28   30      ar
    33   28   31       1
    34   31   33       1
    35   32   33       1
    36   32   34       1
    37   32   35       1
    38   32   36       1
    39   36   37       1
    40   36   38       1
    41   38   39       2
    42   38   40      am
    43   40   41       1
    44   41   42       1
    45   42   43       1
    46   43   44       2
    47   43   45      am
    48   45   46       1
    49   46   47       1
    50   47   48       1
    51   48   49       1
    52   49   50       1
    53   49   51       2
    54   51   52       1
    55   52   53       2
    56   53   54       1
    57   54   55       1
    58   55   56       1
    59   56   57       1
    60    2   58       1
    61    7   59       1
    62    7   60       1
    63    9   61       1
    64   11   62       1
    65   12   63       1
    66   13   64       1
    67   14   65       1
    68   57  101       1
    69   57  100       1
    70   20   66       1
    71   22   67       1
    72   22   68       1
    73   57   99       1
    74   56   98       1
    75   33   69       1
    76   33   70       1
    77   34   71       1
    78   34   72       1
    79   34   73       1
    80   35   74       1
    81   35   75       1
    82   35   76       1
    83   36   77       1
    84   37   78       1
    85   40   79       1
    86   41   80       1
    87   41   81       1
    88   42   82       1
    89   42   83       1
    90   45   84       1
    91   46   85       1
    92   46   86       1
    93   47   87       1
    94   47   88       1
    95   50   89       1
    96   51   90       1
    97   52   91       1
    98   53   92       1
    99   54   93       1
   100   54   94       1
   101   55   95       1
   102   55   96       1
   103   56   97       1
@<TRIPOS>SUBSTRUCTURE
     1 CO81446     1 GROUP             4 D     CO8     0 **** CO8 D1446
