@<TRIPOS>MOLECULE
2pqj_ADE_3_ligand
   15    16     1     0     0
SMALL
NO_CHARGES


@<TRIPOS>ATOM
     1 N9         -23.2930    58.9970   -32.9370 N.2          1 ADE501   0.0000
     2 C8         -24.6230    58.9960   -32.6470 C.2          1 ADE501   0.0000
     3 N7         -24.9830    60.1560   -32.1770 N.pl3        1 ADE501   0.0000
     4 C5         -23.9080    60.9760   -32.1240 C.ar         1 ADE501   0.0000
     5 C6         -23.6710    62.3380   -31.7250 C.ar         1 ADE501   0.0000
     6 N6         -24.6920    63.1330   -31.2260 N.pl3        1 ADE501   0.0000
     7 N1         -22.4220    62.8270   -31.8250 N.ar         1 ADE501   0.0000
     8 C2         -21.4230    62.0840   -32.2970 C.ar         1 ADE501   0.0000
     9 N3         -21.5940    60.8260   -32.6840 N.ar         1 ADE501   0.0000
    10 C4         -22.8030    60.2400   -32.6250 C.ar         1 ADE501   0.0000
    11 H1         -25.2357    58.2164   -32.7763 H            1 ADE501   0.0000
    12 H2         -24.5037    64.0770   -30.9550 H            1 ADE501   0.0000
    13 H3         -25.6165    62.7622   -31.1372 H            1 ADE501   0.0000
    14 H4         -20.5108    62.4885   -32.3623 H            1 ADE501   0.0000
    15 H5         -25.9111    60.4027   -31.8982 H            1 ADE501   0.0000
@<TRIPOS>BOND
     1    1    2       2
     2    1   10       1
     3    2    3       1
     4    3    4       1
     5    4    5      ar
     6    4   10      ar
     7    5    6       1
     8    5    7      ar
     9    7    8      ar
    10    8    9      ar
    11    9   10      ar
    12    8   14       1
    13    2   11       1
    14    6   12       1
    15    6   13       1
    16    3   15       1
@<TRIPOS>SUBSTRUCTURE
     1 ADE501      1 GROUP             4 C     ADE     0 **** ADE C 501
