@<TRIPOS>MOLECULE
3hgx_SAL_1_ligand
   15    15     1     0     0
SMALL
NO_CHARGES


@<TRIPOS>ATOM
     1 C1'          0.4100     4.0020     3.2360 C.2          1 SAL102   0.0000
     2 O1'         -0.4360     4.1710     4.1450 O.co2        1 SAL102   0.0000
     3 O2'          0.1910     3.2690     2.2550 O.co2        1 SAL102  -1.0000
     4 C1           1.7250     4.7020     3.3250 C.ar         1 SAL102   0.0000
     5 C2           2.1430     5.3460     4.6020 C.ar         1 SAL102   0.0000
     6 C3           3.3750     5.9900     4.6440 C.ar         1 SAL102   0.0000
     7 C4           4.1800     6.0280     3.5010 C.ar         1 SAL102   0.0000
     8 C5           3.7800     5.4280     2.3020 C.ar         1 SAL102   0.0000
     9 C6           2.5550     4.7670     2.2130 C.ar         1 SAL102   0.0000
    10 O2           1.3350     5.3060     5.7060 O.3          1 SAL102   0.0000
    11 H1           3.6845     6.4249     5.4896 H            1 SAL102   0.0000
    12 H2           5.0631     6.4954     3.5417 H            1 SAL102   0.0000
    13 H3           4.3778     5.4735     1.5016 H            1 SAL102   0.0000
    14 H4           2.2754     4.3416     1.3522 H            1 SAL102   0.0000
    15 H5           0.4512     4.8402     5.6622 H            1 SAL102   0.0000
@<TRIPOS>BOND
     1    1    2      ar
     2    1    3      ar
     3    1    4       1
     4    4    5      ar
     5    4    9      ar
     6    5    6      ar
     7    5   10       1
     8    6    7      ar
     9    7    8      ar
    10    8    9      ar
    11   10   15       1
    12    6   11       1
    13    7   12       1
    14    8   13       1
    15    9   14       1
@<TRIPOS>SUBSTRUCTURE
     1 SAL102      1 GROUP             4 A     SAL     0 **** SAL A 102
