@<TRIPOS>MOLECULE
4h8a_NAI_2_ligand
   71    75     1     0     0
SMALL
NO_CHARGES


@<TRIPOS>ATOM
     1 PA          36.7040     3.4620   -10.8170 P.3          1 NAI401   0.0000
     2 O1A         36.3060     4.7630   -10.0690 O.co2        1 NAI401   0.0000
     3 O2A         37.8980     3.6900   -11.6830 O.co2        1 NAI401  -1.0000
     4 O5B         37.0560     2.3940    -9.6780 O.3          1 NAI401   0.0000
     5 C5B         37.1310     0.9890    -9.9400 C.3          1 NAI401   0.0000
     6 C4B         37.0360     0.0890    -8.7970 C.3          1 NAI401   0.0000
     7 O4B         38.1330     0.3300    -7.9300 O.3          1 NAI401   0.0000
     8 C3B         35.8180     0.3260    -7.9810 C.3          1 NAI401   0.0000
     9 O3B         35.4470    -0.8660    -7.3400 O.3          1 NAI401   0.0000
    10 C2B         36.2580     1.2750    -7.0190 C.3          1 NAI401   0.0000
    11 O2B         35.4850     1.2550    -5.8730 O.3          1 NAI401   0.0000
    12 C1B         37.6520     0.8320    -6.7270 C.3          1 NAI401   0.0000
    13 N9A         38.5180     1.8890    -6.2310 N.pl3        1 NAI401   0.0000
    14 C8A         38.7090     3.0880    -6.8150 C.2          1 NAI401   0.0000
    15 N7A         39.5840     3.7930    -6.0790 N.2          1 NAI401   0.0000
    16 C5A         39.9570     3.0500    -5.0130 C.ar         1 NAI401   0.0000
    17 C6A         40.8250     3.2780    -3.9450 C.ar         1 NAI401   0.0000
    18 N6A         41.5030     4.5020    -3.8460 N.pl3        1 NAI401   0.0000
    19 N1A         40.9880     2.3040    -3.0320 N.ar         1 NAI401   0.0000
    20 C2A         40.3240     1.1410    -3.1450 C.ar         1 NAI401   0.0000
    21 N3A         39.4770     0.8880    -4.1620 N.ar         1 NAI401   0.0000
    22 C4A         39.2790     1.8320    -5.1100 C.ar         1 NAI401   0.0000
    23 O3          35.4500     2.9290   -11.5510 O.3          1 NAI401   0.0000
    24 PN          35.0040     2.9700   -13.0580 P.3          1 NAI401   0.0000
    25 O1N         35.9490     2.1590   -13.9220 O.co2        1 NAI401   0.0000
    26 O2N         34.8280     4.3860   -13.6170 O.co2        1 NAI401  -1.0000
    27 O5D         33.5710     2.3110   -12.8690 O.3          1 NAI401   0.0000
    28 C5D         32.5060     2.3900   -13.7940 C.3          1 NAI401   0.0000
    29 C4D         31.1190     2.0560   -13.3150 C.3          1 NAI401   0.0000
    30 O4D         30.2880     2.1750   -14.4170 O.3          1 NAI401   0.0000
    31 C3D         30.9880     0.6540   -12.8590 C.3          1 NAI401   0.0000
    32 O3D         29.9610     0.5970   -11.8440 O.3          1 NAI401   0.0000
    33 C2D         30.5490    -0.0470   -13.9830 C.3          1 NAI401   0.0000
    34 O2D         29.7010    -1.1430   -13.6350 O.3          1 NAI401   0.0000
    35 C1D         29.7250     0.9480   -14.6920 C.3          1 NAI401   0.0000
    36 N1N         29.6660     0.6850   -16.1400 N.pl3        1 NAI401   0.0000
    37 C2N         28.5530     0.1810   -16.6750 C.2          1 NAI401   0.0000
    38 C3N         28.5150    -0.0580   -18.0400 C.2          1 NAI401   0.0000
    39 C7N         27.3180    -0.6150   -18.6370 C.2          1 NAI401   0.0000
    40 O7N         27.1975    -0.6481   -19.8283 O.2          1 NAI401   0.0000
    41 N7N         26.2556    -1.1568   -17.7532 N.am         1 NAI401   0.0000
    42 C4N         29.6290     0.2390   -18.8300 C.3          1 NAI401   0.0000
    43 C5N         30.7830     0.7560   -18.2330 C.2          1 NAI401   0.0000
    44 C6N         30.7550     0.9710   -16.8670 C.2          1 NAI401   0.0000
    45 H5B1        38.0075     0.8135   -10.3883 H            1 NAI401   0.0000
    46 H5B2        36.3850     0.7599   -10.5653 H            1 NAI401   0.0000
    47 H4B         37.0542    -0.8603    -9.1108 H            1 NAI401   0.0000
    48 H3B         35.0707     0.6894    -8.5373 H            1 NAI401   0.0000
    49 H5          36.1920    -1.1714    -6.7469 H            1 NAI401   0.0000
    50 H2B         36.2632     2.1927    -7.4163 H            1 NAI401   0.0000
    51 H7          35.8294     1.9359    -5.2267 H            1 NAI401   0.0000
    52 H1B         37.6238     0.0925    -6.0544 H            1 NAI401   0.0000
    53 H8A         38.2714     3.4015    -7.6577 H            1 NAI401   0.0000
    54 H6A1        42.1258     4.6682    -3.0815 H            1 NAI401   0.0000
    55 H6A2        41.3635     5.2084    -4.5399 H            1 NAI401   0.0000
    56 H2A         40.4637     0.4372    -2.4484 H            1 NAI401   0.0000
    57 H5D1        32.7187     1.7644   -14.5446 H            1 NAI401   0.0000
    58 H5D2        32.4822     3.3284   -14.1388 H            1 NAI401   0.0000
    59 H4D         30.8361     2.6873   -12.5929 H            1 NAI401   0.0000
    60 H3D         31.8581     0.2959   -12.5205 H            1 NAI401   0.0000
    61 H17         29.2819     1.3106   -12.0164 H            1 NAI401   0.0000
    62 H2D         31.3185    -0.3483   -14.5461 H            1 NAI401   0.0000
    63 H19         29.9603    -1.4923   -12.7346 H            1 NAI401   0.0000
    64 H1D         28.7971     0.9257   -14.3198 H            1 NAI401   0.0000
    65 H2N         27.7594    -0.0211   -16.1012 H            1 NAI401   0.0000
    66 H7N1        25.4339    -1.5647   -18.1512 H            1 NAI401   0.0000
    67 H7N2        26.3616    -1.1139   -16.7597 H            1 NAI401   0.0000
    68 H4N1        29.3312     0.9068   -19.5121 H            1 NAI401   0.0000
    69 H4N2        29.8945    -0.6095   -19.2879 H            1 NAI401   0.0000
    70 H5N         31.5984     0.9626   -18.7738 H            1 NAI401   0.0000
    71 H6N         31.5628     1.3471   -16.4131 H            1 NAI401   0.0000
@<TRIPOS>BOND
     1    1    2      ar
     2    1    3      ar
     3    1    4       1
     4    1   23       1
     5    4    5       1
     6    5    6       1
     7    6    7       1
     8    6    8       1
     9    7   12       1
    10    8    9       1
    11    8   10       1
    12   10   11       1
    13   10   12       1
    14   12   13       1
    15   13   14       1
    16   13   22       1
    17   14   15       2
    18   15   16       1
    19   16   17      ar
    20   16   22      ar
    21   17   18       1
    22   17   19      ar
    23   19   20      ar
    24   20   21      ar
    25   21   22      ar
    26   23   24       1
    27   24   25      ar
    28   24   26      ar
    29   24   27       1
    30   27   28       1
    31   28   29       1
    32   29   30       1
    33   29   31       1
    34   30   35       1
    35   31   32       1
    36   31   33       1
    37   33   34       1
    38   33   35       1
    39   35   36       1
    40   36   37       1
    41   36   44       1
    42   37   38       2
    43   38   39       1
    44   38   42       1
    45   39   40       2
    46   39   41      am
    47   42   43       1
    48   43   44       2
    49   44   71       1
    50    5   45       1
    51    5   46       1
    52    6   47       1
    53    8   48       1
    54    9   49       1
    55   10   50       1
    56   11   51       1
    57   12   52       1
    58   14   53       1
    59   18   54       1
    60   18   55       1
    61   20   56       1
    62   43   70       1
    63   28   57       1
    64   28   58       1
    65   29   59       1
    66   31   60       1
    67   32   61       1
    68   33   62       1
    69   34   63       1
    70   35   64       1
    71   37   65       1
    72   41   66       1
    73   41   67       1
    74   42   68       1
    75   42   69       1
@<TRIPOS>SUBSTRUCTURE
     1 NAI401      1 GROUP             4 B     NAI     0 **** NAI B 401
