@<TRIPOS>MOLECULE
1hqp_PRZ_1_ligand
   26    26     1     0     0
SMALL
NO_CHARGES


@<TRIPOS>ATOM
     1 N1          14.8620     2.8370     5.1710 N.ar         1 PRZ160   0.0000
     2 C2          14.0340     3.4330     6.0220 C.ar         1 PRZ160   0.0000
     3 C3          14.2900     4.7780     6.4250 C.ar         1 PRZ160   0.0000
     4 N4          15.3620     5.4060     5.9400 N.ar         1 PRZ160   0.0000
     5 C5          16.1800     4.7980     5.0990 C.ar         1 PRZ160   0.0000
     6 C6          15.9220     3.4730     4.7030 C.ar         1 PRZ160   0.0000
     7 C21         12.8070     2.6440     6.5270 C.3          1 PRZ160   0.0000
     8 C22         12.9070     2.0990     7.9760 C.3          1 PRZ160   0.0000
     9 C23         11.5380     1.5780     8.4410 C.3          1 PRZ160   0.0000
    10 C24         13.9420     0.9680     8.1100 C.3          1 PRZ160   0.0000
    11 O31         13.3820     5.3860     7.3030 O.3          1 PRZ160   0.0000
    12 C31         13.5760     6.7060     7.8710 C.3          1 PRZ160   0.0000
    13 H1          16.9816     5.2793     4.7444 H            1 PRZ160   0.0000
    14 H2          16.5409     3.0120     4.0671 H            1 PRZ160   0.0000
    15 H3          12.6692     1.8654     5.9148 H            1 PRZ160   0.0000
    16 H4          12.0123     3.2492     6.4806 H            1 PRZ160   0.0000
    17 H5          13.1800     2.8497     8.5775 H            1 PRZ160   0.0000
    18 H6          11.6138     1.2294     9.3752 H            1 PRZ160   0.0000
    19 H7          10.8718     2.3233     8.4163 H            1 PRZ160   0.0000
    20 H8          11.2376     0.8422     7.8340 H            1 PRZ160   0.0000
    21 H9          13.9692     0.6517     9.0583 H            1 PRZ160   0.0000
    22 H10         13.6850     0.2085     7.5125 H            1 PRZ160   0.0000
    23 H11         14.8444     1.3090     7.8464 H            1 PRZ160   0.0000
    24 H12         12.8035     6.9300     8.4652 H            1 PRZ160   0.0000
    25 H13         14.4216     6.7182     8.4047 H            1 PRZ160   0.0000
    26 H14         13.6367     7.3800     7.1348 H            1 PRZ160   0.0000
@<TRIPOS>BOND
     1    1    2      ar
     2    1    6      ar
     3    2    3      ar
     4    2    7       1
     5    3    4      ar
     6    3   11       1
     7    4    5      ar
     8    5    6      ar
     9    7    8       1
    10    8    9       1
    11    8   10       1
    12   11   12       1
    13    5   13       1
    14    6   14       1
    15    7   15       1
    16    7   16       1
    17    8   17       1
    18    9   18       1
    19    9   19       1
    20    9   20       1
    21   10   21       1
    22   10   22       1
    23   10   23       1
    24   12   24       1
    25   12   25       1
    26   12   26       1
@<TRIPOS>SUBSTRUCTURE
     1 PRZ160      1 GROUP             4 A     PRZ     0 **** PRZ A 160
