@<TRIPOS>MOLECULE
1u26_IHS_2_ligand
   42    42     1     0     0
SMALL
NO_CHARGES


@<TRIPOS>ATOM
     1 C1          41.9900    38.8090    14.0550 C.3          1 IHS2167   0.0000
     2 O1          40.8120    38.8410    13.2020 O.3          1 IHS2167   0.0000
     3 S1          40.4430    37.5140    12.2810 S.o2         1 IHS2167   0.0000
     4 O4          38.9700    37.6160    11.9330 O.co2        1 IHS2167   0.0000
     5 O3          41.4070    37.6280    11.0760 O.co2        1 IHS2167   0.0000
     6 O2          40.7600    36.2560    13.0830 O.co2        1 IHS2167  -1.0000
     7 C2          41.9630    39.9290    15.1490 C.3          1 IHS2167   0.0000
     8 O12         40.9100    39.7100    16.0330 O.3          1 IHS2167   0.0000
     9 S2          41.3550    39.9000    17.6240 S.o2         1 IHS2167   0.0000
    10 O32         42.4680    38.9220    17.9550 O.co2        1 IHS2167   0.0000
    11 O22         41.8450    41.3300    17.8370 O.co2        1 IHS2167   0.0000
    12 O42         40.0660    39.6000    18.3380 O.co2        1 IHS2167  -1.0000
    13 C3          41.9100    41.4240    14.6920 C.3          1 IHS2167   0.0000
    14 O13         40.6110    41.8580    14.1060 O.3          1 IHS2167   0.0000
    15 S3          39.7970    43.1970    14.7360 S.o2         1 IHS2167   0.0000
    16 O33         38.5320    43.3090    13.8880 O.co2        1 IHS2167   0.0000
    17 O23         39.4980    42.8890    16.2080 O.co2        1 IHS2167   0.0000
    18 O43         40.7020    44.4160    14.5840 O.co2        1 IHS2167  -1.0000
    19 C4          42.9870    41.7150    13.6810 C.3          1 IHS2167   0.0000
    20 O14         44.2280    41.9580    14.3490 O.3          1 IHS2167   0.0000
    21 S4          44.6030    43.4390    14.8520 S.o2         1 IHS2167   0.0000
    22 O34         45.6540    43.8350    13.8090 O.co2        1 IHS2167   0.0000
    23 O24         43.3380    44.3260    14.9200 O.co2        1 IHS2167   0.0000
    24 O44         45.1940    43.1990    16.2220 O.co2        1 IHS2167  -1.0000
    25 C5          43.3100    40.6430    12.5790 C.3          1 IHS2167   0.0000
    26 O15         42.3400    40.7410    11.5930 O.3          1 IHS2167   0.0000
    27 S5          42.6120    41.7720    10.3110 S.o2         1 IHS2167   0.0000
    28 O35         41.7170    41.1310     9.2440 O.co2        1 IHS2167   0.0000
    29 O25         42.1520    43.1270    10.8970 O.co2        1 IHS2167   0.0000
    30 O45         44.0660    41.8590     9.8800 O.co2        1 IHS2167  -1.0000
    31 C6          43.2800    39.1540    13.1690 C.3          1 IHS2167   0.0000
    32 O16         44.3380    39.0290    14.1170 O.3          1 IHS2167   0.0000
    33 S6          45.1670    37.6720    14.2180 S.o2         1 IHS2167   0.0000
    34 O36         46.1390    38.0080    15.3480 O.co2        1 IHS2167   0.0000
    35 O26         45.7880    37.3350    12.8700 O.co2        1 IHS2167   0.0000
    36 O46         44.1460    36.6090    14.6340 O.co2        1 IHS2167  -1.0000
    37 H1          42.0889    37.9090    14.4795 H            1 IHS2167   0.0000
    38 H2          42.8040    39.8255    15.6801 H            1 IHS2167   0.0000
    39 H3          42.0859    41.9932    15.4951 H            1 IHS2167   0.0000
    40 H4          42.7324    42.5593    13.2095 H            1 IHS2167   0.0000
    41 H5          44.2096    40.8290    12.1839 H            1 IHS2167   0.0000
    42 H6          43.3884    38.4846    12.4340 H            1 IHS2167   0.0000
@<TRIPOS>BOND
     1    1    2       1
     2    1    7       1
     3    1   31       1
     4    2    3       1
     5    3    4      ar
     6    3    5      ar
     7    3    6      ar
     8    7    8       1
     9    7   13       1
    10    8    9       1
    11    9   10      ar
    12    9   11      ar
    13    9   12      ar
    14   13   14       1
    15   13   19       1
    16   14   15       1
    17   15   16      ar
    18   15   17      ar
    19   15   18      ar
    20   19   20       1
    21   19   25       1
    22   20   21       1
    23   21   22      ar
    24   21   23      ar
    25   21   24      ar
    26   25   26       1
    27   25   31       1
    28   26   27       1
    29   27   28      ar
    30   27   29      ar
    31   27   30      ar
    32   31   32       1
    33   32   33       1
    34   33   34      ar
    35   33   35      ar
    36   33   36      ar
    37    1   37       1
    38   19   40       1
    39    7   38       1
    40   31   42       1
    41   13   39       1
    42   25   41       1
@<TRIPOS>SUBSTRUCTURE
     1 IHS2167     1 GROUP             4 A     IHS     0 **** IHS A2167
