@<TRIPOS>MOLECULE
4lfg_IPE_4_ligand
   23    22     1     0     0
SMALL
NO_CHARGES


@<TRIPOS>ATOM
     1 C1          36.6220    73.8640     3.7230 C.3          1 IPE302   0.0000
     2 O1          36.0730    74.8610     4.5860 O.3          1 IPE302   0.0000
     3 C2          36.8350    72.6240     4.5470 C.3          1 IPE302   0.0000
     4 C3          35.5160    72.1340     5.0980 C.2          1 IPE302   0.0000
     5 C4          34.4840    71.8270     4.3020 C.2          1 IPE302   0.0000
     6 C5          35.3750    71.9820     6.5580 C.3          1 IPE302   0.0000
     7 PA          35.6130    76.2260     3.9580 P.3          1 IPE302   0.0000
     8 O1A         35.1000    77.0710     5.1030 O.co2        1 IPE302   0.0000
     9 O2A         34.7050    75.9910     2.7860 O.co2        1 IPE302  -1.0000
    10 O3A         37.0180    76.8180     3.3980 O.3          1 IPE302   0.0000
    11 PB          37.5340    78.3330     3.2750 P.3          1 IPE302   0.0000
    12 O1B         38.5520    78.2390     2.1340 O.co2        1 IPE302   0.0000
    13 O2B         38.2030    78.6120     4.5910 O.co2        1 IPE302  -1.0000
    14 O3B         36.3870    79.2550     2.9210 O.co2        1 IPE302  -1.0000
    15 H1          37.4938    74.1791     3.3478 H            1 IPE302   0.0000
    16 H2          35.9869    73.6723     2.9747 H            1 IPE302   0.0000
    17 H3          37.4531    72.8326     5.3049 H            1 IPE302   0.0000
    18 H4          37.2392    71.9113     3.9737 H            1 IPE302   0.0000
    19 H5          33.6245    71.5053     4.6993 H            1 IPE302   0.0000
    20 H6          34.5727    71.9194     3.3102 H            1 IPE302   0.0000
    21 H7          34.4553    71.6525     6.7716 H            1 IPE302   0.0000
    22 H8          36.0505    71.3244     6.8914 H            1 IPE302   0.0000
    23 H9          35.5236    72.8661     7.0011 H            1 IPE302   0.0000
@<TRIPOS>BOND
     1    1    2       1
     2    1    3       1
     3    2    7       1
     4    3    4       1
     5    4    5       2
     6    4    6       1
     7    7    8      ar
     8    7    9      ar
     9    7   10       1
    10   10   11       1
    11   11   12      ar
    12   11   13      ar
    13   11   14      ar
    14    1   15       1
    15    1   16       1
    16    3   17       1
    17    3   18       1
    18    5   19       1
    19    5   20       1
    20    6   21       1
    21    6   22       1
    22    6   23       1
@<TRIPOS>SUBSTRUCTURE
     1 IPE302      1 GROUP             4 B     IPE     0 **** IPE B 302
