@<TRIPOS>MOLECULE
3zxi_TYA_1_ligand
   59    62     1     0     0
SMALL
NO_CHARGES


@<TRIPOS>ATOM
     1 OPP         -0.4920     3.4470    26.4160 O.3          1 TYA1374   0.0000
     2 P           -1.4620     2.3930    25.7430 P.3          1 TYA1374   0.0000
     3 O1P         -2.8480     3.1140    25.3460 O.co2        1 TYA1374   0.0000
     4 O2P         -1.7250     1.1880    26.6560 O.co2        1 TYA1374  -1.0000
     5 O5'         -0.6750     1.9720    24.4280 O.3          1 TYA1374   0.0000
     6 C5'         -1.2610     2.1470    23.1500 C.3          1 TYA1374   0.0000
     7 C4'         -0.3570     2.9150    22.2260 C.3          1 TYA1374   0.0000
     8 O4'         -1.1610     3.5080    21.1810 O.3          1 TYA1374   0.0000
     9 C3'          0.3810     4.0700    22.8700 C.3          1 TYA1374   0.0000
    10 O3'          1.5270     4.3880    22.0810 O.3          1 TYA1374   0.0000
    11 C2'         -0.6470     5.1950    22.7650 C.3          1 TYA1374   0.0000
    12 O2'         -0.1110     6.5000    22.8280 O.3          1 TYA1374   0.0000
    13 C1'         -1.2930     4.9060    21.4070 C.3          1 TYA1374   0.0000
    14 N9          -2.7150     5.2420    21.3340 N.pl3        1 TYA1374   0.0000
    15 C8          -3.7160     4.8780    22.1620 C.2          1 TYA1374   0.0000
    16 N7          -4.8730     5.3880    21.6970 N.2          1 TYA1374   0.0000
    17 C5          -4.5980     6.0620    20.5410 C.ar         1 TYA1374   0.0000
    18 C6          -5.3650     6.7910    19.6170 C.ar         1 TYA1374   0.0000
    19 N6          -6.7600     6.9270    19.7950 N.pl3        1 TYA1374   0.0000
    20 N1          -4.7450     7.3580    18.5670 N.ar         1 TYA1374   0.0000
    21 C2          -3.4210     7.2260    18.3850 C.ar         1 TYA1374   0.0000
    22 N3          -2.6390     6.5350    19.2430 N.ar         1 TYA1374   0.0000
    23 C4          -3.2210     5.9580    20.3140 C.ar         1 TYA1374   0.0000
    24 NH2          2.6420     3.3780    27.9400 N.4          1 TYA1374   1.0000
    25 CA           1.7810     2.7380    26.9400 C.3          1 TYA1374   0.0000
    26 C            0.3330     3.0160    27.3280 C.3          1 TYA1374   0.0000
    27 CB           2.1020     1.2530    26.8530 C.3          1 TYA1374   0.0000
    28 CG           3.6000     0.9150    27.1310 C.ar         1 TYA1374   0.0000
    29 CD1          3.9290    -0.0860    28.0210 C.ar         1 TYA1374   0.0000
    30 CD2          4.6180     1.6350    26.4910 C.ar         1 TYA1374   0.0000
    31 CE1          5.2650    -0.3690    28.2620 C.ar         1 TYA1374   0.0000
    32 CE2          5.9450     1.3460    26.7270 C.ar         1 TYA1374   0.0000
    33 CZ           6.2700     0.3390    27.6260 C.ar         1 TYA1374   0.0000
    34 OH           7.5710     0.0350    27.8850 O.3          1 TYA1374   0.0000
    35 H5'1        -2.1205     2.6477    23.2531 H            1 TYA1374   0.0000
    36 H5'2        -1.4444     1.2484    22.7515 H            1 TYA1374   0.0000
    37 H4'          0.3055     2.2878    21.8164 H            1 TYA1374   0.0000
    38 H3'          0.6244     3.8742    23.8200 H            1 TYA1374   0.0000
    39 H5           1.5698     3.7741    21.2928 H            1 TYA1374   0.0000
    40 H2'         -1.3313     5.0846    23.4858 H            1 TYA1374   0.0000
    41 H7          -0.7850     7.1180    23.2327 H            1 TYA1374   0.0000
    42 H1'         -0.7992     5.4037    20.6940 H            1 TYA1374   0.0000
    43 H9          -3.6156     4.3207    22.9862 H            1 TYA1374   0.0000
    44 H10         -7.3001     7.4473    19.1335 H            1 TYA1374   0.0000
    45 H11         -7.2073     6.5030    20.5825 H            1 TYA1374   0.0000
    46 H12         -2.9990     7.6544    17.5860 H            1 TYA1374   0.0000
    47 HH21         2.8246     2.7346    28.6835 H            1 TYA1374   0.0000
    48 HH22         3.5051     3.6477    27.5131 H            1 TYA1374   0.0000
    49 HA           1.9595     3.1565    26.0495 H            1 TYA1374   0.0000
    50 H16         -0.0444     2.1614    27.6848 H            1 TYA1374   0.0000
    51 H17          0.3507     3.7020    28.0554 H            1 TYA1374   0.0000
    52 HB1          1.8723     0.9341    25.9335 H            1 TYA1374   0.0000
    53 HB2          1.5399     0.7691    27.5237 H            1 TYA1374   0.0000
    54 HD1          3.2112    -0.6026    28.4879 H            1 TYA1374   0.0000
    55 HD2          4.3785     2.3682    25.8546 H            1 TYA1374   0.0000
    56 HE1          5.5060    -1.0958    28.9052 H            1 TYA1374   0.0000
    57 HE2          6.6652     1.8556    26.2562 H            1 TYA1374   0.0000
    58 HH           7.7949    -0.6951    28.5306 H            1 TYA1374   0.0000
    59 HH23         2.1834     4.1881    28.3053 H            1 TYA1374   0.0000
@<TRIPOS>BOND
     1    1    2       1
     2    1   26       1
     3    2    3      ar
     4    2    4      ar
     5    2    5       1
     6    5    6       1
     7    6    7       1
     8    7    8       1
     9    7    9       1
    10    8   13       1
    11    9   10       1
    12    9   11       1
    13   11   12       1
    14   11   13       1
    15   13   14       1
    16   14   15       1
    17   14   23       1
    18   15   16       2
    19   16   17       1
    20   17   18      ar
    21   17   23      ar
    22   18   19       1
    23   18   20      ar
    24   20   21      ar
    25   21   22      ar
    26   22   23      ar
    27   24   25       1
    28   25   26       1
    29   25   27       1
    30   27   28       1
    31   28   29      ar
    32   28   30      ar
    33   29   31      ar
    34   30   32      ar
    35   31   33      ar
    36   32   33      ar
    37   33   34       1
    38   34   58       1
    39    6   35       1
    40    6   36       1
    41    7   37       1
    42    9   38       1
    43   10   39       1
    44   11   40       1
    45   12   41       1
    46   13   42       1
    47   15   43       1
    48   19   44       1
    49   19   45       1
    50   21   46       1
    51   24   47       1
    52   24   48       1
    53   25   49       1
    54   26   50       1
    55   26   51       1
    56   27   52       1
    57   27   53       1
    58   29   54       1
    59   30   55       1
    60   31   56       1
    61   32   57       1
    62   24   59       1
@<TRIPOS>SUBSTRUCTURE
     1 TYA1374     1 GROUP             4 A     TYA     0 **** TYA A1374
