@<TRIPOS>MOLECULE
4g1d_0VK_1_ligand
   72    74     1     0     0
SMALL
NO_CHARGES


@<TRIPOS>ATOM
     1 C1           2.3480    39.2370    37.7720 C.2          1 0VK501   0.0000
     2 C2           1.9960    40.5230    38.2890 C.2          1 0VK501   0.0000
     3 C3           0.5290    40.7990    38.6810 C.2          1 0VK501   0.0000
     4 C4          -0.4730    39.7020    38.5040 C.3          1 0VK501   0.0000
     5 C5          -0.0300    38.4020    37.9610 C.3          1 0VK501   0.0000
     6 C6           1.4110    38.2400    37.6140 C.2          1 0VK501   0.0000
     7 C48          0.0610    42.1210    39.2350 C.3          1 0VK501   0.0000
     8 O49          0.3360    42.2050    40.6450 O.3          1 0VK501   0.0000
     9 C52          3.1410    41.5080    38.3970 C.3          1 0VK501   0.0000
    10 O53          4.3930    40.9380    37.9450 O.3          1 0VK501   0.0000
    11 C10         -0.1400    37.0320    38.8010 C.3          1 0VK501   0.0000
    12 O1          -0.1830    36.0280    37.6420 O.3          1 0VK501   0.0000
    13 C14         -0.2120    34.6720    37.8580 C.ar         1 0VK501   0.0000
    14 C17          0.6760    33.9270    36.9340 C.ar         1 0VK501   0.0000
    15 C18          0.7700    32.4540    37.0710 C.ar         1 0VK501   0.0000
    16 C19         -0.0230    31.7530    38.1320 C.ar         1 0VK501   0.0000
    17 C20         -0.8870    32.5420    39.0140 C.ar         1 0VK501   0.0000
    18 C21         -0.9770    33.9790    38.8760 C.ar         1 0VK501   0.0000
    19 C8           0.0530    30.1660    38.3260 C.3          1 0VK501   0.0000
    20 C7           1.6410    31.7860    36.1560 C.ar         1 0VK501   0.0000
    21 C9           1.1220    31.3410    34.8490 C.ar         1 0VK501   0.0000
    22 C11          3.1210    31.5210    36.5450 C.ar         1 0VK501   0.0000
    23 C12          3.9360    30.8350    35.5990 C.ar         1 0VK501   0.0000
    24 C13          1.9810    30.6540    33.9220 C.ar         1 0VK501   0.0000
    25 C16          3.4480    30.3690    34.2780 C.ar         1 0VK501   0.0000
    26 C15          3.8290    31.9280    37.8840 C.2          1 0VK501   0.0000
    27 C22          3.6510    31.0820    39.0190 C.2          1 0VK501   0.0000
    28 C24          4.4550    29.6250    33.3550 C.3          1 0VK501   0.0000
    29 C25          5.4100    30.6120    32.5390 C.3          1 0VK501   0.0000
    30 C26          3.6460    28.6460    32.3790 C.3          1 0VK501   0.0000
    31 O2           5.2560    28.7720    34.2000 O.3          1 0VK501   0.0000
    32 C28          4.4720    27.8180    31.3980 C.3          1 0VK501   0.0000
    33 C29          4.7490    31.6220    31.5710 C.3          1 0VK501   0.0000
    34 C23          4.4190    31.6610    40.2030 C.3          1 0VK501   0.0000
    35 H1           3.2985    39.0570    37.5188 H            1 0VK501   0.0000
    36 H2          -1.1810    40.0494    37.8891 H            1 0VK501   0.0000
    37 H3          -0.8715    39.5224    39.4034 H            1 0VK501   0.0000
    38 H4          -0.5434    38.2581    37.1150 H            1 0VK501   0.0000
    39 H5           1.7133    37.3603    37.2469 H            1 0VK501   0.0000
    40 H6          -0.9239    42.2095    39.0864 H            1 0VK501   0.0000
    41 H7           0.5373    42.8625    38.7625 H            1 0VK501   0.0000
    42 H8           0.4921    43.1598    40.8979 H            1 0VK501   0.0000
    43 H9           3.2391    41.7851    39.3528 H            1 0VK501   0.0000
    44 H10          2.9308    42.3097    37.8374 H            1 0VK501   0.0000
    45 H11          4.3076    40.6630    36.9874 H            1 0VK501   0.0000
    46 H12         -0.9725    36.9993    39.3541 H            1 0VK501   0.0000
    47 H13          0.6565    36.8896    39.3887 H            1 0VK501   0.0000
    48 H14          1.2011    34.4085    36.2323 H            1 0VK501   0.0000
    49 H15         -1.4221    32.0804    39.7215 H            1 0VK501   0.0000
    50 H16         -1.5723    34.4992    39.4884 H            1 0VK501   0.0000
    51 H17         -0.5447    29.8934    39.0800 H            1 0VK501   0.0000
    52 H18         -0.2432    29.7128    37.4852 H            1 0VK501   0.0000
    53 H19          0.9943    29.9003    38.5340 H            1 0VK501   0.0000
    54 H20          0.1682    31.5178    34.6061 H            1 0VK501   0.0000
    55 H21          4.8905    30.6577    35.8390 H            1 0VK501   0.0000
    56 H22          1.6198    30.3591    33.0374 H            1 0VK501   0.0000
    57 H23          4.3881    32.7552    37.9405 H            1 0VK501   0.0000
    58 H24          3.1085    30.2421    39.0357 H            1 0VK501   0.0000
    59 H25          6.0325    30.0455    31.9990 H            1 0VK501   0.0000
    60 H26          5.9344    31.1394    33.2074 H            1 0VK501   0.0000
    61 H27          3.0132    29.2063    31.8445 H            1 0VK501   0.0000
    62 H28          3.1271    28.0100    32.9501 H            1 0VK501   0.0000
    63 H29          4.6634    28.1199    34.6728 H            1 0VK501   0.0000
    64 H30          3.8622    27.2495    30.8457 H            1 0VK501   0.0000
    65 H31          4.9905    28.4292    30.8000 H            1 0VK501   0.0000
    66 H32          5.1044    27.2328    31.9057 H            1 0VK501   0.0000
    67 H33          5.4572    32.1731    31.1296 H            1 0VK501   0.0000
    68 H34          4.2304    31.1259    30.8747 H            1 0VK501   0.0000
    69 H35          4.1323    32.2198    32.0831 H            1 0VK501   0.0000
    70 H36          4.2965    31.0705    41.0007 H            1 0VK501   0.0000
    71 H37          5.3911    31.7159    39.9750 H            1 0VK501   0.0000
    72 H38          4.0728    32.5762    40.4095 H            1 0VK501   0.0000
@<TRIPOS>BOND
     1    1    2       1
     2    1    6       2
     3    2    3       2
     4    2    9       1
     5    3    4       1
     6    3    7       1
     7    4    5       1
     8    5    6       1
     9    5   11       1
    10    7    8       1
    11    9   10       1
    12   11   12       1
    13   12   13       1
    14   13   14      ar
    15   13   18      ar
    16   14   15      ar
    17   15   16      ar
    18   15   20       1
    19   16   17      ar
    20   16   19       1
    21   17   18      ar
    22   20   21      ar
    23   20   22      ar
    24   21   24      ar
    25   22   23      ar
    26   22   26       1
    27   23   25      ar
    28   24   25      ar
    29   25   28       1
    30   26   27       2
    31   27   34       1
    32   28   29       1
    33   28   30       1
    34   28   31       1
    35   29   33       1
    36   30   32       1
    37    1   35       1
    38    4   36       1
    39    4   37       1
    40    5   38       1
    41    6   39       1
    42    7   40       1
    43    7   41       1
    44    8   42       1
    45    9   43       1
    46    9   44       1
    47   10   45       1
    48   11   46       1
    49   11   47       1
    50   14   48       1
    51   17   49       1
    52   18   50       1
    53   19   51       1
    54   19   52       1
    55   19   53       1
    56   21   54       1
    57   23   55       1
    58   24   56       1
    59   26   57       1
    60   27   58       1
    61   29   59       1
    62   29   60       1
    63   30   61       1
    64   30   62       1
    65   31   63       1
    66   32   64       1
    67   32   65       1
    68   32   66       1
    69   33   67       1
    70   33   68       1
    71   33   69       1
    72   34   70       1
    73   34   71       1
    74   34   72       1
@<TRIPOS>SUBSTRUCTURE
     1 0VK501      1 GROUP             4 A     0VK     0 **** 0VK A 501
