@<TRIPOS>MOLECULE
1xkd_NAP_2_ligand
   73    77     1     0     0
SMALL
NO_CHARGES


@<TRIPOS>ATOM
     1 PA         230.1150    97.3630  -172.7640 P.3          1 NAP1003   0.0000
     2 O1A        231.0940    96.7430  -173.6940 O.co2        1 NAP1003   0.0000
     3 O2A        228.7060    97.4400  -173.4280 O.co2        1 NAP1003  -1.0000
     4 O5B        230.5500    98.8750  -172.4050 O.3          1 NAP1003   0.0000
     5 C5B        231.8370    99.1780  -171.9040 C.3          1 NAP1003   0.0000
     6 C4B        232.4010   100.5140  -172.4130 C.3          1 NAP1003   0.0000
     7 O4B        233.1490   100.3970  -173.6270 O.3          1 NAP1003   0.0000
     8 C3B        231.3710   101.6060  -172.6940 C.3          1 NAP1003   0.0000
     9 O3B        230.9220   102.2280  -171.5100 O.3          1 NAP1003   0.0000
    10 C2B        232.1830   102.5210  -173.5870 C.3          1 NAP1003   0.0000
    11 O2B        233.2440   103.0530  -172.8350 O.3          1 NAP1003   0.0000
    12 C1B        232.9380   101.5370  -174.4780 C.3          1 NAP1003   0.0000
    13 N9A        232.3360   101.1520  -175.7350 N.pl3        1 NAP1003   0.0000
    14 C8A        231.6550    99.9580  -175.9310 C.2          1 NAP1003   0.0000
    15 N7A        231.2490    99.8050  -177.1570 N.2          1 NAP1003   0.0000
    16 C5A        231.6740   100.9410  -177.8130 C.ar         1 NAP1003   0.0000
    17 C6A        231.5410   101.3630  -179.1410 C.ar         1 NAP1003   0.0000
    18 N6A        230.9180   100.6350  -180.0480 N.pl3        1 NAP1003   0.0000
    19 N1A        232.0830   102.5580  -179.4850 N.ar         1 NAP1003   0.0000
    20 C2A        232.7170   103.2980  -178.5630 C.ar         1 NAP1003   0.0000
    21 N3A        232.8870   102.9750  -177.2840 N.ar         1 NAP1003   0.0000
    22 C4A        232.3350   101.7700  -176.9690 C.ar         1 NAP1003   0.0000
    23 O3         230.1430    96.4950  -171.3810 O.3          1 NAP1003   0.0000
    24 PN         229.3300    96.7360  -169.9840 P.3          1 NAP1003   0.0000
    25 O1N        228.8930    98.1530  -169.8840 O.co2        1 NAP1003   0.0000
    26 O2N        230.1330    96.1240  -168.8720 O.co2        1 NAP1003  -1.0000
    27 O5D        228.0190    95.8050  -170.1310 O.3          1 NAP1003   0.0000
    28 C5D        226.8770    96.2270  -170.8650 C.3          1 NAP1003   0.0000
    29 C4D        225.9340    95.0430  -171.1040 C.3          1 NAP1003   0.0000
    30 O4D        226.2410    94.4070  -172.3330 O.3          1 NAP1003   0.0000
    31 C3D        225.9940    93.9530  -170.0380 C.3          1 NAP1003   0.0000
    32 O3D        224.6580    93.5690  -169.7620 O.3          1 NAP1003   0.0000
    33 C2D        226.7810    92.8260  -170.7040 C.3          1 NAP1003   0.0000
    34 O2D        226.4740    91.5550  -170.1600 O.3          1 NAP1003   0.0000
    35 C1D        226.4150    93.0000  -172.1830 C.3          1 NAP1003   0.0000
    36 N1N        227.4560    92.6050  -173.1520 N.ar         1 NAP1003   1.0000
    37 C2N        227.1770    91.8760  -174.2980 C.ar         1 NAP1003   0.0000
    38 C3N        228.2350    91.5700  -175.1740 C.ar         1 NAP1003   0.0000
    39 C7N        228.1380    90.6180  -176.3290 C.2          1 NAP1003   0.0000
    40 O7N        227.8690    91.1190  -177.6240 O.2          1 NAP1003   0.0000
    41 N7N        228.3730    89.3230  -176.1070 N.am         1 NAP1003   0.0000
    42 C4N        229.5270    92.0140  -174.8910 C.ar         1 NAP1003   0.0000
    43 C5N        229.7900    92.7580  -173.7430 C.ar         1 NAP1003   0.0000
    44 C6N        228.7290    93.0490  -172.8950 C.ar         1 NAP1003   0.0000
    45 P2B        233.2970   104.4560  -172.0530 P.3          1 NAP1003   0.0000
    46 O1X        232.3090   104.4130  -170.9490 O.co2        1 NAP1003   0.0000
    47 O2X        234.7170   104.6250  -171.4680 O.co2        1 NAP1003  -1.0000
    48 O3X        232.9670   105.6380  -173.0130 O.co2        1 NAP1003  -1.0000
    49 H5B1       232.4621    98.4470  -172.1775 H            1 NAP1003   0.0000
    50 H5B2       231.7859    99.2169  -170.9061 H            1 NAP1003   0.0000
    51 H4B        233.0225   100.8627  -171.7115 H            1 NAP1003   0.0000
    52 H3B        230.5962   101.2277  -173.2005 H            1 NAP1003   0.0000
    53 H5         231.5089   103.0103  -171.3012 H            1 NAP1003   0.0000
    54 H2B        231.6442   103.2014  -174.0837 H            1 NAP1003   0.0000
    55 H1B        233.8329   101.9351  -174.6795 H            1 NAP1003   0.0000
    56 H8A        231.4939    99.2874  -175.2069 H            1 NAP1003   0.0000
    57 H6A1       230.8409   100.9664  -180.9883 H            1 NAP1003   0.0000
    58 H6A2       230.5229    99.7518  -179.7951 H            1 NAP1003   0.0000
    59 H2A        233.0965   104.1725  -178.8650 H            1 NAP1003   0.0000
    60 H5D1       227.1695    96.5993  -171.7458 H            1 NAP1003   0.0000
    61 H5D2       226.3948    96.9341  -170.3479 H            1 NAP1003   0.0000
    62 H4D        224.9969    95.3887  -171.1514 H            1 NAP1003   0.0000
    63 H3D        226.4553    94.2784  -169.2126 H            1 NAP1003   0.0000
    64 H16        224.6545    92.8525  -169.0644 H            1 NAP1003   0.0000
    65 H2D        227.7588    93.0008  -170.5888 H            1 NAP1003   0.0000
    66 H18        226.5862    90.8547  -170.8650 H            1 NAP1003   0.0000
    67 H1D        225.5589    92.5239  -172.3841 H            1 NAP1003   0.0000
    68 H2N        226.2447    91.5744  -174.4976 H            1 NAP1003   0.0000
    69 H7N1       228.3147    88.6679  -176.8603 H            1 NAP1003   0.0000
    70 H7N2       228.6073    89.0078  -175.1873 H            1 NAP1003   0.0000
    71 H4N        230.2732    91.7955  -175.5198 H            1 NAP1003   0.0000
    72 H5N        230.7159    93.0735  -173.5354 H            1 NAP1003   0.0000
    73 H6N        228.8972    93.5966  -172.0754 H            1 NAP1003   0.0000
@<TRIPOS>BOND
     1    1    2      ar
     2    1    3      ar
     3    1    4       1
     4    1   23       1
     5    4    5       1
     6    5    6       1
     7    6    7       1
     8    6    8       1
     9    7   12       1
    10    8    9       1
    11    8   10       1
    12   10   11       1
    13   10   12       1
    14   11   45       1
    15   12   13       1
    16   13   14       1
    17   13   22       1
    18   14   15       2
    19   15   16       1
    20   16   17      ar
    21   16   22      ar
    22   17   18       1
    23   17   19      ar
    24   19   20      ar
    25   20   21      ar
    26   21   22      ar
    27   23   24       1
    28   24   25      ar
    29   24   26      ar
    30   24   27       1
    31   27   28       1
    32   28   29       1
    33   29   30       1
    34   29   31       1
    35   30   35       1
    36   31   32       1
    37   31   33       1
    38   33   34       1
    39   33   35       1
    40   35   36       1
    41   36   37      ar
    42   36   44      ar
    43   37   38      ar
    44   38   39       1
    45   38   42      ar
    46   39   40       2
    47   39   41      am
    48   42   43      ar
    49   43   44      ar
    50   45   46      ar
    51   45   47      ar
    52   45   48      ar
    53   43   72       1
    54    5   49       1
    55    5   50       1
    56    6   51       1
    57    8   52       1
    58    9   53       1
    59   10   54       1
    60   12   55       1
    61   14   56       1
    62   18   57       1
    63   18   58       1
    64   20   59       1
    65   44   73       1
    66   28   60       1
    67   28   61       1
    68   29   62       1
    69   31   63       1
    70   32   64       1
    71   33   65       1
    72   34   66       1
    73   35   67       1
    74   37   68       1
    75   41   69       1
    76   41   70       1
    77   42   71       1
@<TRIPOS>SUBSTRUCTURE
     1 NAP1003     1 GROUP             4 B     NAP     0 **** NAP B1003
