@<TRIPOS>MOLECULE
3kkz_SAM_2_ligand
   50    52     1     0     0
SMALL
NO_CHARGES


@<TRIPOS>ATOM
     1 N            2.8190    75.9490    19.5210 N.4          1 SAM302   1.0000
     2 CA           1.8860    75.6270    20.5550 C.3          1 SAM302   0.0000
     3 C            2.4360    74.5180    21.4770 C.2          1 SAM302   0.0000
     4 O            3.4300    73.9880    21.0390 O.co2        1 SAM302   0.0000
     5 OXT          1.8210    74.5420    22.5420 O.co2        1 SAM302  -1.0000
     6 CB           0.4180    75.2740    20.0080 C.3          1 SAM302   0.0000
     7 CG           0.3780    73.8820    19.6210 C.3          1 SAM302   0.0000
     8 SD          -1.2100    73.5120    18.7160 S.3          1 SAM302   1.0000
     9 CE          -1.4000    71.6970    18.6960 C.3          1 SAM302   0.0000
    10 C5'         -1.4270    74.2900    17.0320 C.3          1 SAM302   0.0000
    11 C4'         -1.5050    75.8060    17.0440 C.3          1 SAM302   0.0000
    12 O4'         -1.5820    76.2410    15.6870 O.3          1 SAM302   0.0000
    13 C3'         -2.8190    76.2890    17.7300 C.3          1 SAM302   0.0000
    14 O3'         -2.5500    77.3210    18.6240 O.3          1 SAM302   0.0000
    15 C2'         -3.6990    76.7260    16.5140 C.3          1 SAM302   0.0000
    16 O2'         -4.5310    77.8080    16.7800 O.3          1 SAM302   0.0000
    17 C1'         -2.5860    77.2100    15.5180 C.3          1 SAM302   0.0000
    18 N9          -2.9860    77.2960    14.0910 N.pl3        1 SAM302   0.0000
    19 C8          -3.7350    76.4270    13.2260 C.2          1 SAM302   0.0000
    20 N7          -3.8270    76.8620    11.9940 N.2          1 SAM302   0.0000
    21 C5          -3.1380    78.0670    11.9260 C.ar         1 SAM302   0.0000
    22 C6          -2.8950    78.9900    10.8570 C.ar         1 SAM302   0.0000
    23 N6          -3.3370    78.8480     9.5800 N.pl3        1 SAM302   0.0000
    24 N1          -2.1530    80.1050    11.1490 N.ar         1 SAM302   0.0000
    25 C2          -1.7060    80.2620    12.4370 C.ar         1 SAM302   0.0000
    26 N3          -1.8610    79.4630    13.5340 N.ar         1 SAM302   0.0000
    27 C4          -2.6050    78.3520    13.2200 C.ar         1 SAM302   0.0000
    28 H1           2.4378    76.6683    18.9402 H            1 SAM302   0.0000
    29 H2           3.6732    76.2691    19.9307 H            1 SAM302   0.0000
    30 HA           1.7910    76.4469    21.1196 H            1 SAM302   0.0000
    31 HB1          0.2091    75.8476    19.2160 H            1 SAM302   0.0000
    32 HB2         -0.2562    75.4408    20.7274 H            1 SAM302   0.0000
    33 HG1          0.4331    73.3098    20.4392 H            1 SAM302   0.0000
    34 HG2          1.1538    73.6830    19.0222 H            1 SAM302   0.0000
    35 HE1         -2.2441    71.4555    18.2172 H            1 SAM302   0.0000
    36 HE2         -0.6200    71.2854    18.2247 H            1 SAM302   0.0000
    37 HE3         -1.4401    71.3557    19.6351 H            1 SAM302   0.0000
    38 H5'1        -2.2725    73.9370    16.6315 H            1 SAM302   0.0000
    39 H5'2        -0.6506    74.0217    16.4617 H            1 SAM302   0.0000
    40 H4'         -0.7043    76.1982    17.4967 H            1 SAM302   0.0000
    41 H3'         -3.2538    75.5267    18.2095 H            1 SAM302   0.0000
    42 H15         -2.1384    78.0887    18.1328 H            1 SAM302   0.0000
    43 H2'         -4.2129    75.9542    16.1396 H            1 SAM302   0.0000
    44 H17         -3.9769    78.5978    17.0431 H            1 SAM302   0.0000
    45 H1'         -2.2397    78.0991    15.8174 H            1 SAM302   0.0000
    46 H19         -4.1475    75.5702    13.5356 H            1 SAM302   0.0000
    47 H20         -3.1198    79.5438     8.8954 H            1 SAM302   0.0000
    48 H21         -3.8795    78.0477     9.3248 H            1 SAM302   0.0000
    49 H22         -1.1812    81.0977    12.5988 H            1 SAM302   0.0000
    50 H23          2.9987    75.1349    18.9688 H            1 SAM302   0.0000
@<TRIPOS>BOND
     1    1    2       1
     2    2    3       1
     3    2    6       1
     4    3    4      ar
     5    3    5      ar
     6    6    7       1
     7    7    8       1
     8    8    9       1
     9    8   10       1
    10   10   11       1
    11   11   12       1
    12   11   13       1
    13   12   17       1
    14   13   14       1
    15   13   15       1
    16   15   16       1
    17   15   17       1
    18   17   18       1
    19   18   19       1
    20   18   27       1
    21   19   20       2
    22   20   21       1
    23   21   22      ar
    24   21   27      ar
    25   22   23       1
    26   22   24      ar
    27   24   25      ar
    28   25   26      ar
    29   26   27      ar
    30    1   28       1
    31    1   29       1
    32    2   30       1
    33    1   50       1
    34    6   31       1
    35    6   32       1
    36    7   33       1
    37    7   34       1
    38    9   35       1
    39    9   36       1
    40    9   37       1
    41   10   38       1
    42   10   39       1
    43   11   40       1
    44   13   41       1
    45   14   42       1
    46   15   43       1
    47   16   44       1
    48   17   45       1
    49   19   46       1
    50   23   47       1
    51   23   48       1
    52   25   49       1
@<TRIPOS>SUBSTRUCTURE
     1 SAM302      1 GROUP             4 B     SAM     0 **** SAM B 302
