@<TRIPOS>MOLECULE
1ejb_INJ_3_ligand
   51    51     1     0     0
SMALL
NO_CHARGES


@<TRIPOS>ATOM
     1 N1          68.2760    30.0480    42.7080 N.pl3        1 INJ400   0.0000
     2 C2          69.5770    29.5030    42.7580 C.2          1 INJ400   0.0000
     3 O2          69.7660    28.4870    43.4610 O.2          1 INJ400   0.0000
     4 N3          70.5940    30.1860    42.1650 N.pl3        1 INJ400   0.0000
     5 C4          70.4280    31.2670    41.3710 C.2          1 INJ400   0.0000
     6 O4          71.4770    31.8360    40.9770 O.2          1 INJ400   0.0000
     7 C5          69.0470    31.8500    41.2430 C.2          1 INJ400   0.0000
     8 C6          67.9570    31.2120    41.9590 C.2          1 INJ400   0.0000
     9 N7          66.6270    31.5640    41.7490 N.pl3        1 INJ400   0.0000
    10 C8          65.6250    30.4440    41.9430 C.3          1 INJ400   0.0000
    11 C9          64.9950    30.6070    43.4140 C.3          1 INJ400   0.0000
    12 O9          65.9370    30.1250    44.3420 O.3          1 INJ400   0.0000
    13 C10         63.6360    29.9200    43.7010 C.3          1 INJ400   0.0000
    14 O10         63.7650    28.6080    43.2230 O.3          1 INJ400   0.0000
    15 C11         62.3450    30.4650    42.8370 C.3          1 INJ400   0.0000
    16 O11         62.4450    31.8900    43.1070 O.3          1 INJ400   0.0000
    17 C12         60.9250    29.9830    43.3060 C.3          1 INJ400   0.0000
    18 O12         60.9200    30.0150    44.7460 O.3          1 INJ400   0.0000
    19 C13         69.1110    33.0280    40.4760 C.3          1 INJ400   0.0000
    20 C14         69.2660    34.3660    41.1160 C.3          1 INJ400   0.0000
    21 C15         69.8680    35.1630    39.9710 C.3          1 INJ400   0.0000
    22 C16         68.7730    35.5930    39.0140 C.3          1 INJ400   0.0000
    23 C17         69.3990    36.3440    37.8140 C.3          1 INJ400   0.0000
    24 P           68.4750    37.7400    37.1600 P.3          1 INJ400   0.0000
    25 O1P         67.1180    37.5210    36.7810 O.co2        1 INJ400   0.0000
    26 O2P         68.6660    38.9000    38.1780 O.co2        1 INJ400  -1.0000
    27 O3P         69.1250    38.2490    35.8080 O.co2        1 INJ400  -1.0000
    28 H1          67.5475    29.5952    43.2220 H            1 INJ400   0.0000
    29 H2          71.5274    29.8663    42.3279 H            1 INJ400   0.0000
    30 H3          66.3523    32.4896    41.4888 H            1 INJ400   0.0000
    31 H4          66.0832    29.5587    41.8642 H            1 INJ400   0.0000
    32 H5          64.9034    30.5084    41.2537 H            1 INJ400   0.0000
    33 H6          64.8789    31.5855    43.5844 H            1 INJ400   0.0000
    34 H7          66.5364    30.8728    44.6275 H            1 INJ400   0.0000
    35 H8          63.4355    29.9236    44.6807 H            1 INJ400   0.0000
    36 H9          63.6291    27.9641    43.9759 H            1 INJ400   0.0000
    37 H10         62.4731    30.2828    41.8621 H            1 INJ400   0.0000
    38 H11         61.5323    32.2981    43.0860 H            1 INJ400   0.0000
    39 H12         60.7551    29.0519    42.9832 H            1 INJ400   0.0000
    40 H13         60.2196    30.5942    42.9470 H            1 INJ400   0.0000
    41 H14         61.2280    29.1320    45.1001 H            1 INJ400   0.0000
    42 H15         68.2645    33.0654    39.9450 H            1 INJ400   0.0000
    43 H16         69.8885    32.9196    39.8565 H            1 INJ400   0.0000
    44 H17         69.8828    34.3284    41.9022 H            1 INJ400   0.0000
    45 H18         68.3843    34.7414    41.4018 H            1 INJ400   0.0000
    46 H19         70.5310    34.5949    39.4834 H            1 INJ400   0.0000
    47 H20         70.3274    35.9730    40.3356 H            1 INJ400   0.0000
    48 H21         68.1343    36.1983    39.4891 H            1 INJ400   0.0000
    49 H22         68.2840    34.7859    38.6833 H            1 INJ400   0.0000
    50 H23         69.5157    35.6841    37.0718 H            1 INJ400   0.0000
    51 H24         70.2945    36.6826    38.1029 H            1 INJ400   0.0000
@<TRIPOS>BOND
     1    1    2       1
     2    1    8       1
     3    2    3       2
     4    2    4       1
     5    4    5       1
     6    5    6       2
     7    5    7       1
     8    7    8       2
     9    7   19       1
    10    8    9       1
    11    9   10       1
    12   10   11       1
    13   11   12       1
    14   11   13       1
    15   13   14       1
    16   13   15       1
    17   15   16       1
    18   15   17       1
    19   17   18       1
    20   19   20       1
    21   20   21       1
    22   21   22       1
    23   22   23       1
    24   23   24       1
    25   24   25      ar
    26   24   26      ar
    27   24   27      ar
    28    1   28       1
    29    4   29       1
    30    9   30       1
    31   10   31       1
    32   10   32       1
    33   11   33       1
    34   12   34       1
    35   13   35       1
    36   14   36       1
    37   15   37       1
    38   16   38       1
    39   17   39       1
    40   17   40       1
    41   18   41       1
    42   19   42       1
    43   19   43       1
    44   20   44       1
    45   20   45       1
    46   21   46       1
    47   21   47       1
    48   22   48       1
    49   22   49       1
    50   23   50       1
    51   23   51       1
@<TRIPOS>SUBSTRUCTURE
     1 INJ400      1 GROUP             4 C     INJ     0 **** INJ C 400
