@<TRIPOS>MOLECULE
1saz_ACP_1_ligand
   45    47     1     0     0
SMALL
NO_CHARGES


@<TRIPOS>ATOM
     1 PG          44.2530    19.9620    27.1370 P.3          1 ACP399   0.0000
     2 O1G         45.0470    18.7390    27.5740 O.co2        1 ACP399   0.0000
     3 O2G         42.8360    19.5780    26.8710 O.co2        1 ACP399  -1.0000
     4 O3G         44.3980    21.1260    28.1230 O.co2        1 ACP399  -1.0000
     5 PB          44.1380    22.0160    25.1030 P.3          1 ACP399   0.0000
     6 O1B         45.0300    22.4650    23.9860 O.co2        1 ACP399   0.0000
     7 O2B         43.7890    23.1620    25.9500 O.co2        1 ACP399  -1.0000
     8 C3B         44.9830    20.7710    25.7740 C.3          1 ACP399   0.0000
     9 PA          41.1990    22.1620    24.1510 P.3          1 ACP399   0.0000
    10 O1A         41.1070    23.6610    24.3020 O.co2        1 ACP399   0.0000
    11 O2A         40.3450    21.4010    25.1130 O.co2        1 ACP399  -1.0000
    12 O3A         42.7220    21.6840    24.3020 O.3          1 ACP399   0.0000
    13 O5'         41.0190    21.9840    22.5600 O.3          1 ACP399   0.0000
    14 C5'         41.0650    20.6060    22.1340 C.3          1 ACP399   0.0000
    15 C4'         40.9360    19.9840    20.7020 C.3          1 ACP399   0.0000
    16 O4'         39.6970    20.2130    20.1020 O.3          1 ACP399   0.0000
    17 C3'         41.9810    20.7080    19.9390 C.3          1 ACP399   0.0000
    18 O3'         43.1740    19.9640    19.9870 O.3          1 ACP399   0.0000
    19 C2'         41.3520    20.9320    18.5370 C.3          1 ACP399   0.0000
    20 O2'         41.9120    20.0330    17.6020 O.3          1 ACP399   0.0000
    21 C1'         39.9190    20.7390    18.8060 C.3          1 ACP399   0.0000
    22 N9          38.9920    21.9350    18.6340 N.pl3        1 ACP399   0.0000
    23 C8          38.9090    23.1360    19.2520 C.2          1 ACP399   0.0000
    24 N7          37.9370    23.9440    18.8150 N.2          1 ACP399   0.0000
    25 C5          37.3700    23.2040    17.8580 C.ar         1 ACP399   0.0000
    26 C6          36.2610    23.3820    16.9280 C.ar         1 ACP399   0.0000
    27 N6          35.5240    24.5280    16.9010 N.pl3        1 ACP399   0.0000
    28 N1          35.9090    22.3810    16.0250 N.ar         1 ACP399   0.0000
    29 C2          36.6090    21.2080    16.0020 C.ar         1 ACP399   0.0000
    30 N3          37.6590    20.9550    16.8290 N.ar         1 ACP399   0.0000
    31 C4          37.9940    21.9530    17.7170 C.ar         1 ACP399   0.0000
    32 H3B1        45.1296    20.0864    25.0599 H            1 ACP399   0.0000
    33 H3B2        45.8653    21.1328    26.0751 H            1 ACP399   0.0000
    34 H5'1        40.3348    20.1658    22.6566 H            1 ACP399   0.0000
    35 H5'2        41.9520    20.2802    22.4612 H            1 ACP399   0.0000
    36 H4'         41.1367    19.0047    20.7269 H            1 ACP399   0.0000
    37 H3'         42.1372    21.5973    20.3689 H            1 ACP399   0.0000
    38 H7          43.4514    19.7185    19.0581 H            1 ACP399   0.0000
    39 H2'         41.5158    21.8728    18.2402 H            1 ACP399   0.0000
    40 H9          42.8991    20.1827    17.5457 H            1 ACP399   0.0000
    41 H1'         39.6028    20.0427    18.1616 H            1 ACP399   0.0000
    42 H11         39.5331    23.4017    19.9868 H            1 ACP399   0.0000
    43 H12         34.7690    24.6217    16.2520 H            1 ACP399   0.0000
    44 H13         35.7382    25.2752    17.5301 H            1 ACP399   0.0000
    45 H14         36.3370    20.5030    15.3471 H            1 ACP399   0.0000
@<TRIPOS>BOND
     1    1    2      ar
     2    1    3      ar
     3    1    4      ar
     4    1    8       1
     5    5    6      ar
     6    5    7      ar
     7    5    8       1
     8    5   12       1
     9    9   10      ar
    10    9   11      ar
    11    9   12       1
    12    9   13       1
    13   13   14       1
    14   14   15       1
    15   15   16       1
    16   15   17       1
    17   16   21       1
    18   17   18       1
    19   17   19       1
    20   19   20       1
    21   19   21       1
    22   21   22       1
    23   22   23       1
    24   22   31       1
    25   23   24       2
    26   24   25       1
    27   25   26      ar
    28   25   31      ar
    29   26   27       1
    30   26   28      ar
    31   28   29      ar
    32   29   30      ar
    33   30   31      ar
    34   29   45       1
    35   27   44       1
    36   27   43       1
    37    8   32       1
    38    8   33       1
    39   23   42       1
    40   14   34       1
    41   14   35       1
    42   15   36       1
    43   17   37       1
    44   18   38       1
    45   19   39       1
    46   20   40       1
    47   21   41       1
@<TRIPOS>SUBSTRUCTURE
     1 ACP399      1 GROUP             4 A     ACP     0 **** ACP A 399
