@<TRIPOS>MOLECULE
3wwi_PLP_3_ligand
   24    24     1     0     0
SMALL
NO_CHARGES


@<TRIPOS>ATOM
     1 N1          79.2100   -15.1340    36.0810 N.ar         1 PLP401   0.0000
     2 C2          78.5520   -15.9840    36.8880 C.ar         1 PLP401   0.0000
     3 C2A         77.5770   -15.5230    37.9200 C.3          1 PLP401   0.0000
     4 C3          78.8090   -17.4040    36.7790 C.ar         1 PLP401   0.0000
     5 O3          78.1580   -18.2350    37.6000 O.3          1 PLP401  -1.0000
     6 C4          79.7670   -17.8660    35.7510 C.ar         1 PLP401   0.0000
     7 C4A         80.0410   -19.2920    35.5350 C.3          1 PLP401   0.0000
     8 C5          80.4230   -16.8470    34.9250 C.ar         1 PLP401   0.0000
     9 C6          80.0810   -15.5130    35.1260 C.ar         1 PLP401   0.0000
    10 C5A         81.3690   -17.2610    33.8430 C.3          1 PLP401   0.0000
    11 O4P         82.6140   -17.6910    34.3470 O.3          1 PLP401   0.0000
    12 P           83.4490   -18.6990    33.4150 P.3          1 PLP401   0.0000
    13 O1P         83.5230   -18.1070    32.0390 O.co2        1 PLP401   0.0000
    14 O2P         84.7790   -18.7910    34.1560 O.co2        1 PLP401  -1.0000
    15 O3P         82.6760   -19.9840    33.3820 O.co2        1 PLP401  -1.0000
    16 H2A1        77.2057   -16.3148    38.4051 H            1 PLP401   0.0000
    17 H2A2        78.0398   -14.9206    38.5703 H            1 PLP401   0.0000
    18 H2A3        76.8323   -15.0248    37.4760 H            1 PLP401   0.0000
    19 H4A1        80.7125   -19.3950    34.8012 H            1 PLP401   0.0000
    20 H4A2        80.4028   -19.6931    36.3766 H            1 PLP401   0.0000
    21 H4A3        79.1944   -19.7592    35.2802 H            1 PLP401   0.0000
    22 H7          80.4949   -14.8138    34.5431 H            1 PLP401   0.0000
    23 H5A1        81.5213   -16.4817    33.2352 H            1 PLP401   0.0000
    24 H5A2        80.9562   -18.0111    33.3263 H            1 PLP401   0.0000
@<TRIPOS>BOND
     1    1    2      ar
     2    1    9      ar
     3    2    3       1
     4    2    4      ar
     5    4    5       1
     6    4    6      ar
     7    6    7       1
     8    6    8      ar
     9    8    9      ar
    10    8   10       1
    11   10   11       1
    12   11   12       1
    13   12   13      ar
    14   12   14      ar
    15   12   15      ar
    16    3   16       1
    17    3   17       1
    18    3   18       1
    19   10   24       1
    20    7   19       1
    21    7   20       1
    22    7   21       1
    23    9   22       1
    24   10   23       1
@<TRIPOS>SUBSTRUCTURE
     1 PLP401      1 GROUP             4 C     PLP     0 **** PLP C 401
