@<TRIPOS>MOLECULE
4gh5_NAD_3_ligand
   70    74     1     0     0
SMALL
NO_CHARGES


@<TRIPOS>ATOM
     1 PA           9.7970    48.0230    24.8470 P.3          1 NAD301   0.0000
     2 O1A         10.3630    48.8490    26.0810 O.co2        1 NAD301   0.0000
     3 O2A          8.6870    46.9680    25.1800 O.co2        1 NAD301  -1.0000
     4 O5B          9.2160    48.9810    23.8070 O.3          1 NAD301   0.0000
     5 C5B          8.7480    48.5170    22.5920 C.3          1 NAD301   0.0000
     6 C4B          7.8800    49.4410    21.7670 C.3          1 NAD301   0.0000
     7 O4B          7.4100    48.7330    20.6040 O.3          1 NAD301   0.0000
     8 C3B          6.6680    49.9100    22.5130 C.3          1 NAD301   0.0000
     9 O3B          6.4850    51.3040    22.4760 O.3          1 NAD301   0.0000
    10 C2B          5.5730    49.2030    21.8990 C.3          1 NAD301   0.0000
    11 O2B          4.3330    49.8680    21.9030 O.3          1 NAD301   0.0000
    12 C1B          6.0530    48.9500    20.5000 C.3          1 NAD301   0.0000
    13 N9A          5.3840    47.8110    19.9050 N.pl3        1 NAD301   0.0000
    14 C8A          5.1240    46.6200    20.5010 C.2          1 NAD301   0.0000
    15 N7A          4.4670    45.8310    19.6330 N.2          1 NAD301   0.0000
    16 C5A          4.3090    46.5080    18.4780 C.ar         1 NAD301   0.0000
    17 C6A          3.7190    46.2250    17.2470 C.ar         1 NAD301   0.0000
    18 N6A          3.0760    44.9270    16.9860 N.pl3        1 NAD301   0.0000
    19 N1A          3.7380    47.1690    16.2690 N.ar         1 NAD301   0.0000
    20 C2A          4.2980    48.3730    16.4700 C.ar         1 NAD301   0.0000
    21 N3A          4.8910    48.6640    17.6490 N.ar         1 NAD301   0.0000
    22 C4A          4.8850    47.7630    18.6590 C.ar         1 NAD301   0.0000
    23 O3          11.0040    47.3320    24.1030 O.3          1 NAD301   0.0000
    24 PN          12.5740    47.6340    24.1780 P.3          1 NAD301   0.0000
    25 O1N         12.8060    49.0840    23.8500 O.co2        1 NAD301   0.0000
    26 O2N         13.2680    47.1740    25.5050 O.co2        1 NAD301  -1.0000
    27 O5D         13.1040    46.7060    22.9820 O.3          1 NAD301   0.0000
    28 C5D         13.1970    47.1910    21.7150 C.3          1 NAD301   0.0000
    29 C4D         13.7930    46.1200    20.8110 C.3          1 NAD301   0.0000
    30 O4D         15.0090    45.7050    21.3640 O.3          1 NAD301   0.0000
    31 C3D         12.9420    44.8750    20.6660 C.3          1 NAD301   0.0000
    32 O3D         13.0270    44.3170    19.3280 O.3          1 NAD301   0.0000
    33 C2D         13.4930    43.9910    21.6530 C.3          1 NAD301   0.0000
    34 O2D         13.1750    42.6590    21.3860 O.3          1 NAD301   0.0000
    35 C1D         14.9550    44.2770    21.5530 C.3          1 NAD301   0.0000
    36 N1N         15.7980    43.9190    22.6700 N.ar         1 NAD301   1.0000
    37 C2N         15.5100    44.3450    23.9250 C.ar         1 NAD301   0.0000
    38 C3N         16.3560    44.0240    24.9860 C.ar         1 NAD301   0.0000
    39 C7N         16.0360    44.4540    26.4070 C.2          1 NAD301   0.0000
    40 O7N         16.5890    43.9230    27.3070 O.2          1 NAD301   0.0000
    41 N7N         15.0530    45.5000    26.6710 N.am         1 NAD301   0.0000
    42 C4N         17.5140    43.3020    24.7630 C.ar         1 NAD301   0.0000
    43 C5N         17.7980    42.8970    23.4630 C.ar         1 NAD301   0.0000
    44 C6N         16.9240    43.2310    22.4360 C.ar         1 NAD301   0.0000
    45 H5B1         8.2142    47.6913    22.7744 H            1 NAD301   0.0000
    46 H5B2         9.5453    48.2824    22.0359 H            1 NAD301   0.0000
    47 H4B          8.4188    50.2325    21.4783 H            1 NAD301   0.0000
    48 H3B          6.7444    49.6201    23.4670 H            1 NAD301   0.0000
    49 H5           6.3837    51.6018    21.5268 H            1 NAD301   0.0000
    50 H2B          5.4634    48.3232    22.3615 H            1 NAD301   0.0000
    51 H7           4.4174    50.7336    21.4094 H            1 NAD301   0.0000
    52 H1B          5.8882    49.7620    19.9401 H            1 NAD301   0.0000
    53 H8A          5.3797    46.3696    21.4348 H            1 NAD301   0.0000
    54 H6A1         2.6590    44.7457    16.0954 H            1 NAD301   0.0000
    55 H6A2         3.0562    44.2264    17.6993 H            1 NAD301   0.0000
    56 H2A          4.2760    49.0587    15.7425 H            1 NAD301   0.0000
    57 H5D1        13.7856    47.9994    21.7087 H            1 NAD301   0.0000
    58 H5D2        12.2865    47.4391    21.3842 H            1 NAD301   0.0000
    59 H4D         13.9604    46.5105    19.9057 H            1 NAD301   0.0000
    60 H3D         11.9899    45.0844    20.8887 H            1 NAD301   0.0000
    61 H17         12.3151    44.7201    18.7529 H            1 NAD301   0.0000
    62 H2D         13.1586    44.2447    22.5607 H            1 NAD301   0.0000
    63 H19         13.5738    42.0732    22.0915 H            1 NAD301   0.0000
    64 H1D         15.3108    43.8332    20.7305 H            1 NAD301   0.0000
    65 H2N         14.6885    44.8909    24.0899 H            1 NAD301   0.0000
    66 H7N1        14.8531    45.7722    27.6122 H            1 NAD301   0.0000
    67 H7N2        14.5794    45.9445    25.9106 H            1 NAD301   0.0000
    68 H4N         18.1313    43.0769    25.5168 H            1 NAD301   0.0000
    69 H5N         18.6250    42.3694    23.2691 H            1 NAD301   0.0000
    70 H6N         17.1401    42.9516    21.5005 H            1 NAD301   0.0000
@<TRIPOS>BOND
     1    1    2      ar
     2    1    3      ar
     3    1    4       1
     4    1   23       1
     5    4    5       1
     6    5    6       1
     7    6    7       1
     8    6    8       1
     9    7   12       1
    10    8    9       1
    11    8   10       1
    12   10   11       1
    13   10   12       1
    14   12   13       1
    15   13   14       1
    16   13   22       1
    17   14   15       2
    18   15   16       1
    19   16   17      ar
    20   16   22      ar
    21   17   18       1
    22   17   19      ar
    23   19   20      ar
    24   20   21      ar
    25   21   22      ar
    26   23   24       1
    27   24   25      ar
    28   24   26      ar
    29   24   27       1
    30   27   28       1
    31   28   29       1
    32   29   30       1
    33   29   31       1
    34   30   35       1
    35   31   32       1
    36   31   33       1
    37   33   34       1
    38   33   35       1
    39   35   36       1
    40   36   37      ar
    41   36   44      ar
    42   37   38      ar
    43   38   39       1
    44   38   42      ar
    45   39   40       2
    46   39   41      am
    47   42   43      ar
    48   43   44      ar
    49   44   70       1
    50    5   45       1
    51    5   46       1
    52    6   47       1
    53    8   48       1
    54    9   49       1
    55   10   50       1
    56   11   51       1
    57   12   52       1
    58   14   53       1
    59   18   54       1
    60   18   55       1
    61   20   56       1
    62   43   69       1
    63   28   57       1
    64   28   58       1
    65   29   59       1
    66   31   60       1
    67   32   61       1
    68   33   62       1
    69   34   63       1
    70   35   64       1
    71   37   65       1
    72   41   66       1
    73   41   67       1
    74   42   68       1
@<TRIPOS>SUBSTRUCTURE
     1 NAD301      1 GROUP             4 C     NAD     0 **** NAD C 301
