@<TRIPOS>MOLECULE
./coach420/1k22/ligand.pdb
 31 30 0 0 0
SMALL
GASTEIGER

@<TRIPOS>ATOM
      1 NA          5.6650  -12.9580   30.3430 Na    391  NA391       0.0000
      2  C2        18.9060  -15.7460   25.2000 C.3   999  MEL999      0.0000
      3  C3        19.4890  -15.5290   26.6320 C.3   999  MEL999      0.0000
      4  C4        20.8110  -14.7180   26.5380 C.3   999  MEL999      0.0000
      5  C5        20.5890  -13.3450   25.8180 C.3   999  MEL999      0.0000
      6  C6        20.0880  -13.6120   24.3660 C.3   999  MEL999      0.0000
      7  N7        17.0410  -15.5660   22.9810 N.3   999  MEL999      0.0000
      8  C8        18.2480  -14.6920   22.9380 C.3   999  MEL999      0.0000
      9  C9        17.8690  -13.4020   22.2810 C.2   999  MEL999      0.0000
     10  O0        16.8270  -12.7900   22.6660 O.2   999  MEL999      0.0000
     11  N11       18.6150  -12.9120   21.2930 N.am  999  MEL999      0.0000
     12  C12       18.4550  -11.6940   20.4810 C.3   999  MEL999      0.0000
     13  C13       17.0860  -11.8150   19.8150 C.2   999  MEL999      0.0000
     14  O14       16.8180  -12.8260   19.1830 O.2   999  MEL999      0.0000
     15  N15       16.1420  -10.7990   19.9520 N.am  999  MEL999      0.0000
     16  C16       14.7890  -11.0010   19.4880 C.3   999  MEL999      0.0000
     17  C17       13.8470  -10.9690   20.6190 C.ar  999  MEL999      0.0000
     18  C18       13.2900   -9.7430   21.0060 C.ar  999  MEL999      0.0000
     19  C19       12.3680   -9.6780   22.1010 C.ar  999  MEL999      0.0000
     20  C20       12.0130  -10.8460   22.8000 C.ar  999  MEL999      0.0000
     21  C21       12.5810  -12.1100   22.4090 C.ar  999  MEL999      0.0000
     22  C22       13.5050  -12.1640   21.3070 C.ar  999  MEL999      0.0000
     23  C23       11.1080  -10.7790   23.8690 C.2   999  MEL999      0.0000
     24  N24       10.9490   -9.6150   24.5710 N.pl3 999  MEL999      0.5000
     25  N25       10.3630  -11.8800   24.2150 N.pl3 999  MEL999      0.5000
     26  C26       19.7830  -11.9190   19.8420 C.3   999  MEL999      0.0000
     27  C27       19.8320  -13.2830   20.5760 C.3   999  MEL999      0.0000
     28  C28       16.4900  -16.1470   21.7190 C.3   999  MEL999      0.0000
     29  C29       14.9780  -16.4710   21.8140 C.2   999  MEL999      0.0000
     30  O30       14.3890  -16.5990   23.0010 O.co2 999  MEL999      0.0000
     31  O31       14.2770  -16.6270   20.7220 O.co2 999  MEL999      0.0000
@<TRIPOS>BOND
     1     2     3    1
     2     3     4    1
     3     4     5    1
     4     5     6    1
     5     7    28    1
     6     7     8    1
     7     8     9    1
     8     9    11   am
     9     9    10    2
    10    11    12    1
    11    11    27    1
    12    12    13    1
    13    12    26    1
    14    13    14    2
    15    13    15   am
    16    15    16    1
    17    16    17    1
    18    17    18   ar
    19    17    22   ar
    20    18    19   ar
    21    19    20   ar
    22    20    21   ar
    23    20    23    1
    24    21    22   ar
    25    23    25    2
    26    23    24    1
    27    26    27    1
    28    28    29    1
    29    29    31   ar
    30    29    30   ar
