@<TRIPOS>MOLECULE
3jwa_MPJ_1_ligand
   21    20     1     0     0
SMALL
NO_CHARGES


@<TRIPOS>ATOM
     1 N           10.1590    17.5500    11.9020 N.4          1 MPJ399   1.0000
     2 CA          11.5540    17.2500    12.2650 C.3          1 MPJ399   0.0000
     3 CB          12.5210    18.0300    11.3670 C.3          1 MPJ399   0.0000
     4 CG          12.3210    17.6410     9.9050 C.3          1 MPJ399   0.0000
     5 SD          13.4560    18.5070     8.7590 S.3          1 MPJ399   0.0000
     6 CE          12.9370    20.1930     8.9860 C.3          1 MPJ399   0.0000
     7 O1          13.0510    16.9040    14.5040 O.co2        1 MPJ399   0.0000
     8 O2          10.5340    17.0700    14.7810 O.co2        1 MPJ399  -1.0000
     9 P           11.8480    17.6360    14.0400 P.3          1 MPJ399   0.0000
    10 H1           9.8493    16.9029    11.2053 H            1 MPJ399   0.0000
    11 H2           9.5790    17.4699    12.7127 H            1 MPJ399   0.0000
    12 HA          11.7128    16.2727    12.1247 H            1 MPJ399   0.0000
    13 HB1         13.4612    17.8230    11.6373 H            1 MPJ399   0.0000
    14 HB2         12.3516    19.0098    11.4733 H            1 MPJ399   0.0000
    15 HG1         11.3805    17.8596     9.6448 H            1 MPJ399   0.0000
    16 HG2         12.4712    16.6564     9.8158 H            1 MPJ399   0.0000
    17 HE1         13.4874    20.7923     8.4047 H            1 MPJ399   0.0000
    18 HE2         11.9725    20.2812     8.7372 H            1 MPJ399   0.0000
    19 HE3         13.0594    20.4534     9.9437 H            1 MPJ399   0.0000
    20 H11         11.9472    18.6207    14.1835 H            1 MPJ399   0.0000
    21 H12         10.1012    18.4809    11.5414 H            1 MPJ399   0.0000
@<TRIPOS>BOND
     1    1    2       1
     2    2    3       1
     3    2    9       1
     4    3    4       1
     5    4    5       1
     6    5    6       1
     7    7    9      ar
     8    8    9      ar
     9    1   10       1
    10    1   11       1
    11    2   12       1
    12    3   13       1
    13    3   14       1
    14    4   15       1
    15    4   16       1
    16    6   17       1
    17    6   18       1
    18    6   19       1
    19    1   21       1
    20    9   20       1
@<TRIPOS>SUBSTRUCTURE
     1 MPJ399      1 GROUP             4 A     MPJ     0 **** MPJ A 399
