@<TRIPOS>MOLECULE
1qd1_FON_1_ligand
   61    63     1     0     0
SMALL
NO_CHARGES


@<TRIPOS>ATOM
     1 N1           6.5650    31.8650    42.0760 N.2          1 FON330   0.0000
     2 C2           6.9910    31.0390    43.0590 C.2          1 FON330   0.0000
     3 NA2          8.4480    30.9130    43.1980 N.pl3        1 FON330   0.0000
     4 N3           6.4260    30.3430    43.8960 N.am         1 FON330   0.0000
     5 C4           5.0380    30.2760    43.7460 C.2          1 FON330   0.0000
     6 O4           4.2260    29.3400    44.3640 O.2          1 FON330   0.0000
     7 C4A          4.4230    31.2170    42.9020 C.3          1 FON330   0.0000
     8 N5           3.0820    31.2410    42.6130 N.4          1 FON330   1.0000
     9 C6           2.6260    30.7100    41.2460 C.3          1 FON330   0.0000
    10 C7           3.6650    31.0060    40.1800 C.3          1 FON330   0.0000
    11 N8           4.6630    31.8060    40.6430 N.4          1 FON330   1.0000
    12 C8A          5.2070    31.8450    41.9080 C.3          1 FON330   0.0000
    13 C9           2.2340    29.2610    41.3360 C.3          1 FON330   0.0000
    14 N10          1.1970    28.9790    40.3260 N.pl3        1 FON330   0.0000
    15 C11         -2.9610    30.0980    40.0960 C.ar         1 FON330   0.0000
    16 C12         -2.2330    29.4430    39.0400 C.ar         1 FON330   0.0000
    17 C13         -0.9140    28.9580    39.1910 C.ar         1 FON330   0.0000
    18 C14         -0.2180    29.3510    40.3460 C.ar         1 FON330   0.0000
    19 C15         -0.8960    29.9410    41.4740 C.ar         1 FON330   0.0000
    20 C16         -2.3050    30.2530    41.3770 C.ar         1 FON330   0.0000
    21 C           -4.3380    30.5150    39.7670 C.2          1 FON330   0.0000
    22 O           -5.0070    31.1120    40.6390 O.2          1 FON330   0.0000
    23 N           -4.9000    30.2480    38.5250 N.am         1 FON330   0.0000
    24 CA          -6.3490    30.0760    38.2880 C.3          1 FON330   0.0000
    25 CB          -6.6440    30.5570    36.9270 C.3          1 FON330   0.0000
    26 CG          -8.1490    30.8340    36.7330 C.3          1 FON330   0.0000
    27 CD          -8.6680    31.0450    35.2810 C.2          1 FON330   0.0000
    28 OE1         -9.9020    30.9620    35.0610 O.co2        1 FON330   0.0000
    29 OE2         -7.8600    31.2900    34.3600 O.co2        1 FON330  -1.0000
    30 CT          -6.9500    28.6220    38.4720 C.2          1 FON330   0.0000
    31 O1          -7.8630    28.4660    39.3120 O.co2        1 FON330   0.0000
    32 O2          -6.5470    27.6640    37.7670 O.co2        1 FON330  -1.0000
    33 CP1          2.0240    31.7250    43.5690 C.3          1 FON330   0.0000
    34 O3           2.1720    31.4140    44.9840 O.3          1 FON330   0.0000
    35 HA21         8.8334    30.3191    43.9042 H            1 FON330   0.0000
    36 HA22         9.0544    31.4212    42.5864 H            1 FON330   0.0000
    37 H4A          4.4200    31.9775    43.5514 H            1 FON330   0.0000
    38 H4           1.8018    31.2187    40.9972 H            1 FON330   0.0000
    39 H5           3.2168    31.4625    39.4114 H            1 FON330   0.0000
    40 H6           4.0624    30.1426    39.8692 H            1 FON330   0.0000
    41 H7           4.3357    32.7368    40.4806 H            1 FON330   0.0000
    42 H8A          5.0085    32.7989    42.1332 H            1 FON330   0.0000
    43 H9           1.8742    29.0673    42.2487 H            1 FON330   0.0000
    44 H10          3.0341    28.6862    41.1642 H            1 FON330   0.0000
    45 H11          1.5005    28.4667    39.5226 H            1 FON330   0.0000
    46 H12         -2.6836    29.3254    38.1550 H            1 FON330   0.0000
    47 H13         -0.4951    28.3617    38.5062 H            1 FON330   0.0000
    48 H14         -0.3951    30.1332    42.3179 H            1 FON330   0.0000
    49 H15         -2.8147    30.5688    42.1773 H            1 FON330   0.0000
    50 H16         -4.2848    30.1669    37.7408 H            1 FON330   0.0000
    51 HA          -6.8280    30.6785    38.9264 H            1 FON330   0.0000
    52 HB1         -6.3548    29.8625    36.2681 H            1 FON330   0.0000
    53 HB2         -6.1354    31.4026    36.7649 H            1 FON330   0.0000
    54 HG1         -8.3692    31.6604    37.2512 H            1 FON330   0.0000
    55 HG2         -8.6471    30.0568    37.1175 H            1 FON330   0.0000
    56 HP11         1.1541    31.3329    43.2699 H            1 FON330   0.0000
    57 HP12         1.9861    32.7210    43.4880 H            1 FON330   0.0000
    58 H24          2.2191    32.2638    45.5089 H            1 FON330   0.0000
    59 H25          6.9167    29.8641    44.6239 H            1 FON330   0.0000
    60 H26          3.1721    32.1620    42.2340 H            1 FON330   0.0000
    61 H27          5.4384    31.6156    40.0410 H            1 FON330   0.0000
@<TRIPOS>BOND
     1    1    2       2
     2    1   12       1
     3    2    3       1
     4    2    4       1
     5    4    5      am
     6    5    6       2
     7    5    7       1
     8    7    8       1
     9    7   12       1
    10    8    9       1
    11    8   33       1
    12    9   10       1
    13    9   13       1
    14   10   11       1
    15   11   12       1
    16   13   14       1
    17   14   18       1
    18   15   16      ar
    19   15   20      ar
    20   15   21       1
    21   16   17      ar
    22   17   18      ar
    23   18   19      ar
    24   19   20      ar
    25   21   22       2
    26   21   23      am
    27   23   24       1
    28   24   25       1
    29   24   30       1
    30   25   26       1
    31   26   27       1
    32   27   28      ar
    33   27   29      ar
    34   30   31      ar
    35   30   32      ar
    36   33   34       1
    37   34   58       1
    38    3   35       1
    39    3   36       1
    40    7   37       1
    41    9   38       1
    42   10   39       1
    43   10   40       1
    44   11   41       1
    45   12   42       1
    46   13   43       1
    47   13   44       1
    48   14   45       1
    49   16   46       1
    50   17   47       1
    51   19   48       1
    52   20   49       1
    53   23   50       1
    54   24   51       1
    55   25   52       1
    56   25   53       1
    57   26   54       1
    58   26   55       1
    59   11   61       1
    60    8   60       1
    61   33   56       1
    62   33   57       1
    63    4   59       1
@<TRIPOS>SUBSTRUCTURE
     1 FON330      1 GROUP             4 A     FON     0 **** FON A 330
