@<TRIPOS>MOLECULE
4jq9_FAD_6_ligand
   84    89     1     0     0
SMALL
NO_CHARGES


@<TRIPOS>ATOM
     1 PA          61.6790   165.7940   232.9380 P.3          1 FAD510   0.0000
     2 O1A         61.5590   165.3270   234.3660 O.co2        1 FAD510   0.0000
     3 O2A         62.9320   165.5130   232.1540 O.co2        1 FAD510  -1.0000
     4 O5B         61.4550   167.3850   232.9430 O.3          1 FAD510   0.0000
     5 C5B         60.4760   167.9610   233.7990 C.3          1 FAD510   0.0000
     6 C4B         61.0140   169.2970   234.2870 C.3          1 FAD510   0.0000
     7 O4B         59.9760   170.0820   234.8700 O.3          1 FAD510   0.0000
     8 C3B         62.0790   169.1200   235.3580 C.3          1 FAD510   0.0000
     9 O3B         63.2460   169.8290   234.9380 O.3          1 FAD510   0.0000
    10 C2B         61.5050   169.7420   236.6200 C.3          1 FAD510   0.0000
    11 O2B         62.5060   170.4930   237.3110 O.3          1 FAD510   0.0000
    12 C1B         60.4120   170.6600   236.1050 C.3          1 FAD510   0.0000
    13 N9A         59.2240   170.7920   236.9860 N.pl3        1 FAD510   0.0000
    14 C8A         58.5140   169.8110   237.5660 C.2          1 FAD510   0.0000
    15 N7A         57.4870   170.3670   238.2560 N.2          1 FAD510   0.0000
    16 C5A         57.5490   171.7040   238.0850 C.ar         1 FAD510   0.0000
    17 C6A         56.7830   172.7740   238.5350 C.ar         1 FAD510   0.0000
    18 N6A         55.7030   172.5730   239.3290 N.pl3        1 FAD510   0.0000
    19 N1A         57.1220   174.0340   238.1750 N.ar         1 FAD510   0.0000
    20 C2A         58.1860   174.2560   237.3910 C.ar         1 FAD510   0.0000
    21 N3A         58.9410   173.2430   236.9430 N.ar         1 FAD510   0.0000
    22 C4A         58.6390   171.9610   237.2730 C.ar         1 FAD510   0.0000
    23 N1          65.3550   158.0620   229.0160 N.2          1 FAD510   0.0000
    24 C2          65.7830   157.7080   227.7860 C.2          1 FAD510   0.0000
    25 O2          65.0610   157.9280   226.7890 O.2          1 FAD510   0.0000
    26 N3          66.9830   157.1140   227.6270 N.pl3        1 FAD510   0.0000
    27 C4          67.7780   156.8790   228.6950 C.2          1 FAD510   0.0000
    28 O4          68.8890   156.3310   228.5310 O.2          1 FAD510   0.0000
    29 C4X         67.3550   157.2370   229.9690 C.2          1 FAD510   0.0000
    30 N5          68.1260   157.0080   231.0550 N.2          1 FAD510   0.0000
    31 C5X         67.7530   157.5030   232.2630 C.ar         1 FAD510   0.0000
    32 C6          68.6050   157.4030   233.3670 C.ar         1 FAD510   0.0000
    33 C7          68.2210   157.9110   234.6040 C.ar         1 FAD510   0.0000
    34 C7M         69.1500   157.7980   235.7930 C.3          1 FAD510   0.0000
    35 C8          66.9840   158.5250   234.7410 C.ar         1 FAD510   0.0000
    36 C8M         66.5780   159.0710   236.0920 C.3          1 FAD510   0.0000
    37 C9          66.1250   158.6340   233.6420 C.ar         1 FAD510   0.0000
    38 C9A         66.5080   158.1180   232.4010 C.ar         1 FAD510   0.0000
    39 N10         65.6900   158.2090   231.3370 N.pl3        1 FAD510   0.0000
    40 C10         66.1140   157.8410   230.1170 C.2          1 FAD510   0.0000
    41 C1'         64.3830   158.8420   231.4880 C.3          1 FAD510   0.0000
    42 C2'         64.4230   160.2660   230.9430 C.3          1 FAD510   0.0000
    43 O2'         65.3240   161.0390   231.7340 O.3          1 FAD510   0.0000
    44 C3'         63.0310   160.8590   231.0280 C.3          1 FAD510   0.0000
    45 O3'         62.1590   160.0370   230.2470 O.3          1 FAD510   0.0000
    46 C4'         62.9850   162.2910   230.5130 C.3          1 FAD510   0.0000
    47 O4'         63.7210   163.1570   231.3920 O.3          1 FAD510   0.0000
    48 C5'         61.5410   162.7780   230.4370 C.3          1 FAD510   0.0000
    49 O5'         61.5620   164.1810   230.1910 O.3          1 FAD510   0.0000
    50 P           60.3020   165.1130   230.5340 P.3          1 FAD510   0.0000
    51 O1P         59.0290   164.3590   230.2420 O.co2        1 FAD510   0.0000
    52 O2P         60.5330   166.4520   229.8750 O.co2        1 FAD510  -1.0000
    53 O3P         60.4000   165.2230   232.1380 O.3          1 FAD510   0.0000
    54 H5B1        60.3075   167.3570   234.5780 H            1 FAD510   0.0000
    55 H5B2        59.6236   168.1010   233.2952 H            1 FAD510   0.0000
    56 H4B         61.4064   169.7947   233.5135 H            1 FAD510   0.0000
    57 H3B         62.2831   168.1514   235.5000 H            1 FAD510   0.0000
    58 H5          63.0252   170.7979   234.8262 H            1 FAD510   0.0000
    59 H2B         61.1203   169.0371   237.2159 H            1 FAD510   0.0000
    60 H7          62.8458   171.2217   236.7164 H            1 FAD510   0.0000
    61 H1B         60.7963   171.5663   235.9291 H            1 FAD510   0.0000
    62 H8A         58.7099   168.8326   237.5002 H            1 FAD510   0.0000
    63 H6A1        55.1622   173.3528   239.6444 H            1 FAD510   0.0000
    64 H6A2        55.4470   171.6449   239.5994 H            1 FAD510   0.0000
    65 H2A         58.4208   175.1939   237.1357 H            1 FAD510   0.0000
    66 H13         67.2870   156.8455   226.7130 H            1 FAD510   0.0000
    67 H14         69.4973   156.9629   233.2668 H            1 FAD510   0.0000
    68 H7M1        68.7179   158.2120   236.5942 H            1 FAD510   0.0000
    69 H7M2        69.3395   156.8336   235.9775 H            1 FAD510   0.0000
    70 H7M3        70.0066   158.2737   235.5931 H            1 FAD510   0.0000
    71 H8M1        65.6674   159.4791   236.0266 H            1 FAD510   0.0000
    72 H8M2        66.5630   158.3279   236.7610 H            1 FAD510   0.0000
    73 H8M3        67.2352   159.7669   236.3815 H            1 FAD510   0.0000
    74 H21         65.2365   159.0814   233.7446 H            1 FAD510   0.0000
    75 H1'1        64.1371   158.8657   232.4570 H            1 FAD510   0.0000
    76 H1'2        63.6998   158.3141   230.9836 H            1 FAD510   0.0000
    77 H2'         64.7299   160.2563   229.9913 H            1 FAD510   0.0000
    78 H25         65.0259   161.9935   231.7420 H            1 FAD510   0.0000
    79 H3'         62.7273   160.8445   231.9807 H            1 FAD510   0.0000
    80 H27         61.2377   160.0657   230.6349 H            1 FAD510   0.0000
    81 H4'         63.3922   162.3256   229.6003 H            1 FAD510   0.0000
    82 H29         63.1102   163.8606   231.7551 H            1 FAD510   0.0000
    83 H5'1        61.0742   162.5920   231.3016 H            1 FAD510   0.0000
    84 H5'2        61.0638   162.3101   229.6931 H            1 FAD510   0.0000
@<TRIPOS>BOND
     1    1    2      ar
     2    1    3      ar
     3    1    4       1
     4    1   53       1
     5    4    5       1
     6    5    6       1
     7    6    7       1
     8    6    8       1
     9    7   12       1
    10    8    9       1
    11    8   10       1
    12   10   11       1
    13   10   12       1
    14   12   13       1
    15   13   14       1
    16   13   22       1
    17   14   15       2
    18   15   16       1
    19   16   17      ar
    20   16   22      ar
    21   17   18       1
    22   17   19      ar
    23   19   20      ar
    24   20   21      ar
    25   21   22      ar
    26   23   24       1
    27   23   40       2
    28   24   25       2
    29   24   26       1
    30   26   27       1
    31   27   28       2
    32   27   29       1
    33   29   30       2
    34   29   40       1
    35   30   31       1
    36   31   32      ar
    37   31   38      ar
    38   32   33      ar
    39   33   34       1
    40   33   35      ar
    41   35   36       1
    42   35   37      ar
    43   37   38      ar
    44   38   39       1
    45   39   40       1
    46   39   41       1
    47   41   42       1
    48   42   43       1
    49   42   44       1
    50   44   45       1
    51   44   46       1
    52   46   47       1
    53   46   48       1
    54   48   49       1
    55   49   50       1
    56   50   51      ar
    57   50   52      ar
    58   50   53       1
    59   48   84       1
    60    5   54       1
    61    5   55       1
    62    6   56       1
    63    8   57       1
    64    9   58       1
    65   10   59       1
    66   11   60       1
    67   12   61       1
    68   14   62       1
    69   18   63       1
    70   18   64       1
    71   20   65       1
    72   26   66       1
    73   32   67       1
    74   34   68       1
    75   34   69       1
    76   34   70       1
    77   36   71       1
    78   36   72       1
    79   36   73       1
    80   37   74       1
    81   41   75       1
    82   41   76       1
    83   42   77       1
    84   43   78       1
    85   44   79       1
    86   45   80       1
    87   46   81       1
    88   47   82       1
    89   48   83       1
@<TRIPOS>SUBSTRUCTURE
     1 FAD510      1 GROUP             4 D     FAD     0 **** FAD D 510
