@<TRIPOS>MOLECULE
3oc4_FAD_1_ligand
   84    89     1     0     0
SMALL
NO_CHARGES


@<TRIPOS>ATOM
     1 PA         -19.4480    63.3680    53.1650 P.3          1 FAD500   0.0000
     2 O1A        -20.8900    63.1250    52.7520 O.co2        1 FAD500   0.0000
     3 O2A        -18.4000    62.3520    52.8140 O.co2        1 FAD500  -1.0000
     4 O5B        -19.3590    63.6270    54.7600 O.3          1 FAD500   0.0000
     5 C5B        -20.2340    64.5320    55.4440 C.3          1 FAD500   0.0000
     6 C4B        -20.3660    64.0900    56.9100 C.3          1 FAD500   0.0000
     7 O4B        -21.1680    65.0200    57.6270 O.3          1 FAD500   0.0000
     8 C3B        -21.0380    62.7290    57.0290 C.3          1 FAD500   0.0000
     9 O3B        -20.0920    61.8830    57.7090 O.3          1 FAD500   0.0000
    10 C2B        -22.3090    62.9540    57.8410 C.3          1 FAD500   0.0000
    11 O2B        -22.5660    61.9000    58.7740 O.3          1 FAD500   0.0000
    12 C1B        -22.0900    64.3230    58.4910 C.3          1 FAD500   0.0000
    13 N9A        -23.3190    65.1830    58.6020 N.pl3        1 FAD500   0.0000
    14 C8A        -24.1620    65.5290    57.6060 C.2          1 FAD500   0.0000
    15 N7A        -25.1440    66.3150    58.0860 N.2          1 FAD500   0.0000
    16 C5A        -24.9200    66.4700    59.4110 C.ar         1 FAD500   0.0000
    17 C6A        -25.5720    67.1680    60.4580 C.ar         1 FAD500   0.0000
    18 N6A        -26.7110    67.8890    60.2090 N.pl3        1 FAD500   0.0000
    19 N1A        -25.0560    67.1100    61.7310 N.ar         1 FAD500   0.0000
    20 C2A        -23.9240    66.3980    62.0040 C.ar         1 FAD500   0.0000
    21 N3A        -23.2790    65.7220    61.0250 N.ar         1 FAD500   0.0000
    22 C4A        -23.7480    65.7420    59.7210 C.ar         1 FAD500   0.0000
    23 N1         -15.7990    60.7570    44.4910 N.2          1 FAD500   0.0000
    24 C2         -14.6140    60.5410    43.8580 C.2          1 FAD500   0.0000
    25 O2         -13.7770    61.4760    43.8040 O.2          1 FAD500   0.0000
    26 N3         -14.3450    59.3040    43.2800 N.pl3        1 FAD500   0.0000
    27 C4         -15.2740    58.2720    43.3420 C.2          1 FAD500   0.0000
    28 O4         -15.0020    57.1540    42.8050 O.2          1 FAD500   0.0000
    29 C4X        -16.5270    58.4830    43.9970 C.2          1 FAD500   0.0000
    30 N5         -17.4840    57.4930    44.0860 N.2          1 FAD500   0.0000
    31 C5X        -18.6910    57.6760    44.7120 C.ar         1 FAD500   0.0000
    32 C6         -19.6300    56.6220    44.7610 C.ar         1 FAD500   0.0000
    33 C7         -20.9020    56.7910    45.4120 C.ar         1 FAD500   0.0000
    34 C7M        -21.8680    55.6160    45.4270 C.3          1 FAD500   0.0000
    35 C8         -21.2190    58.0560    46.0170 C.ar         1 FAD500   0.0000
    36 C8M        -22.5440    58.3150    46.7210 C.3          1 FAD500   0.0000
    37 C9         -20.2730    59.1150    45.9690 C.ar         1 FAD500   0.0000
    38 C9A        -19.0060    58.9470    45.3200 C.ar         1 FAD500   0.0000
    39 N10        -18.0180    60.0150    45.2570 N.pl3        1 FAD500   0.0000
    40 C10        -16.7570    59.7650    44.5800 C.2          1 FAD500   0.0000
    41 C1'        -18.2550    61.3590    45.8710 C.3          1 FAD500   0.0000
    42 C2'        -17.5950    61.5030    47.2420 C.3          1 FAD500   0.0000
    43 O2'        -18.0370    60.4300    48.0780 O.3          1 FAD500   0.0000
    44 C3'        -17.9500    62.8560    47.8790 C.3          1 FAD500   0.0000
    45 O3'        -17.5100    63.9470    47.0330 O.3          1 FAD500   0.0000
    46 C4'        -17.2930    63.0010    49.2410 C.3          1 FAD500   0.0000
    47 O4'        -17.8510    62.0210    50.1200 O.3          1 FAD500   0.0000
    48 C5'        -17.5320    64.3760    49.8170 C.3          1 FAD500   0.0000
    49 O5'        -16.9180    64.4690    51.0740 O.3          1 FAD500   0.0000
    50 P          -17.5150    65.3620    52.2740 P.3          1 FAD500   0.0000
    51 O1P        -16.5470    65.1790    53.4100 O.co2        1 FAD500   0.0000
    52 O2P        -17.7120    66.7690    51.7280 O.co2        1 FAD500  -1.0000
    53 O3P        -19.0150    64.8120    52.5660 O.3          1 FAD500   0.0000
    54 H5B1       -21.1341    64.5214    55.0085 H            1 FAD500   0.0000
    55 H5B2       -19.8560    65.4570    55.4056 H            1 FAD500   0.0000
    56 H4B        -19.4574    64.0476    57.3256 H            1 FAD500   0.0000
    57 H3B        -21.2558    62.3614    56.1249 H            1 FAD500   0.0000
    58 H5         -19.8884    62.2672    58.6095 H            1 FAD500   0.0000
    59 H2B        -23.0831    63.0193    57.2114 H            1 FAD500   0.0000
    60 H7         -22.1262    62.1126    59.6466 H            1 FAD500   0.0000
    61 H1B        -21.6796    64.2044    59.3952 H            1 FAD500   0.0000
    62 H8A        -24.0705    65.2435    56.6520 H            1 FAD500   0.0000
    63 H6A1       -27.1653    68.3789    60.9531 H            1 FAD500   0.0000
    64 H6A2       -27.0875    67.9251    59.2833 H            1 FAD500   0.0000
    65 H2A        -23.5672    66.3756    62.9379 H            1 FAD500   0.0000
    66 H13        -13.4726    59.1558    42.8143 H            1 FAD500   0.0000
    67 H14        -19.4072    55.7444    44.3365 H            1 FAD500   0.0000
    68 H7M1       -22.7036    55.8776    45.9100 H            1 FAD500   0.0000
    69 H7M2       -22.0931    55.3575    44.4876 H            1 FAD500   0.0000
    70 H7M3       -21.4424    54.8405    45.8932 H            1 FAD500   0.0000
    71 H8M1       -22.5592    59.2526    47.0683 H            1 FAD500   0.0000
    72 H8M2       -23.2958    58.1868    46.0742 H            1 FAD500   0.0000
    73 H8M3       -22.6472    57.6756    47.4829 H            1 FAD500   0.0000
    74 H21        -20.4948    59.9921    46.3950 H            1 FAD500   0.0000
    75 H1'1       -19.2404    61.4949    45.9740 H            1 FAD500   0.0000
    76 H1'2       -17.8838    62.0596    45.2616 H            1 FAD500   0.0000
    77 H2'        -16.6026    61.4442    47.1337 H            1 FAD500   0.0000
    78 H25        -18.0448    60.7317    49.0314 H            1 FAD500   0.0000
    79 H3'        -18.9423    62.9117    47.9901 H            1 FAD500   0.0000
    80 H27        -18.1188    64.7307    47.1561 H            1 FAD500   0.0000
    81 H4'        -16.3092    62.8451    49.1527 H            1 FAD500   0.0000
    82 H29        -18.2842    62.4781    50.8968 H            1 FAD500   0.0000
    83 H5'1       -18.5152    64.5305    49.9140 H            1 FAD500   0.0000
    84 H5'2       -17.1449    65.0657    49.2050 H            1 FAD500   0.0000
@<TRIPOS>BOND
     1    1    2      ar
     2    1    3      ar
     3    1    4       1
     4    1   53       1
     5    4    5       1
     6    5    6       1
     7    6    7       1
     8    6    8       1
     9    7   12       1
    10    8    9       1
    11    8   10       1
    12   10   11       1
    13   10   12       1
    14   12   13       1
    15   13   14       1
    16   13   22       1
    17   14   15       2
    18   15   16       1
    19   16   17      ar
    20   16   22      ar
    21   17   18       1
    22   17   19      ar
    23   19   20      ar
    24   20   21      ar
    25   21   22      ar
    26   23   24       1
    27   23   40       2
    28   24   25       2
    29   24   26       1
    30   26   27       1
    31   27   28       2
    32   27   29       1
    33   29   30       2
    34   29   40       1
    35   30   31       1
    36   31   32      ar
    37   31   38      ar
    38   32   33      ar
    39   33   34       1
    40   33   35      ar
    41   35   36       1
    42   35   37      ar
    43   37   38      ar
    44   38   39       1
    45   39   40       1
    46   39   41       1
    47   41   42       1
    48   42   43       1
    49   42   44       1
    50   44   45       1
    51   44   46       1
    52   46   47       1
    53   46   48       1
    54   48   49       1
    55   49   50       1
    56   50   51      ar
    57   50   52      ar
    58   50   53       1
    59   48   84       1
    60    5   54       1
    61    5   55       1
    62    6   56       1
    63    8   57       1
    64    9   58       1
    65   10   59       1
    66   11   60       1
    67   12   61       1
    68   14   62       1
    69   18   63       1
    70   18   64       1
    71   20   65       1
    72   26   66       1
    73   32   67       1
    74   34   68       1
    75   34   69       1
    76   34   70       1
    77   36   71       1
    78   36   72       1
    79   36   73       1
    80   37   74       1
    81   41   75       1
    82   41   76       1
    83   42   77       1
    84   43   78       1
    85   44   79       1
    86   45   80       1
    87   46   81       1
    88   47   82       1
    89   48   83       1
@<TRIPOS>SUBSTRUCTURE
     1 FAD500      1 GROUP             4 A     FAD     0 **** FAD A 500
