@<TRIPOS>MOLECULE
2qir_COA_1_ligand
   80    82     1     0     0
SMALL
NO_CHARGES


@<TRIPOS>ATOM
     1 N1A          2.5310    -1.9780   -22.3370 N.ar         1 COA197   0.0000
     2 C2A          2.8620    -1.5870   -23.6210 C.ar         1 COA197   0.0000
     3 N3A          2.1370    -0.5820   -24.2410 N.ar         1 COA197   0.0000
     4 C4A          1.0990     0.0320   -23.6100 C.ar         1 COA197   0.0000
     5 C5A          0.7500    -0.3440   -22.3140 C.ar         1 COA197   0.0000
     6 C6A          1.4780    -1.3620   -21.6750 C.ar         1 COA197   0.0000
     7 N6A          1.2500    -1.6790   -20.3980 N.pl3        1 COA197   0.0000
     8 N7A         -0.3040     0.4220   -21.9390 N.2          1 COA197   0.0000
     9 C8A         -0.6220     1.2590   -22.9610 C.2          1 COA197   0.0000
    10 N9A          0.2460     1.0390   -24.0090 N.pl3        1 COA197   0.0000
    11 C1B          0.4810     1.9200   -25.1850 C.3          1 COA197   0.0000
    12 C2B         -0.7900     2.2070   -25.9740 C.3          1 COA197   0.0000
    13 O2B         -1.0700     1.1460   -26.8590 O.3          1 COA197   0.0000
    14 C3B         -0.4980     3.5320   -26.6760 C.3          1 COA197   0.0000
    15 O3B          0.0510     3.3910   -27.9720 O.3          1 COA197   0.0000
    16 P3B         -0.7360     2.9580   -29.3200 P.3          1 COA197   0.0000
    17 O7A         -1.3110     4.1800   -30.0100 O.co2        1 COA197   0.0000
    18 O8A         -1.8670     2.0030   -28.9970 O.co2        1 COA197  -1.0000
    19 O9A          0.2700     2.2790   -30.2300 O.co2        1 COA197  -1.0000
    20 C4B          0.6040     4.1600   -25.8280 C.3          1 COA197   0.0000
    21 O4B          1.0040     3.1990   -24.8550 O.3          1 COA197   0.0000
    22 C5B          0.1790     5.4540   -25.1540 C.3          1 COA197   0.0000
    23 O5B         -0.4570     6.3410   -26.0500 O.3          1 COA197   0.0000
    24 P1A         -1.3160     7.5910   -25.4870 P.3          1 COA197   0.0000
    25 O1A         -2.7980     7.2830   -25.5290 O.co2        1 COA197   0.0000
    26 O2A         -0.9900     8.8590   -26.2430 O.co2        1 COA197  -1.0000
    27 O3A         -0.7890     7.6820   -23.9700 O.3          1 COA197   0.0000
    28 P2A         -1.6340     8.3320   -22.7700 P.3          1 COA197   0.0000
    29 O4A         -2.8110     9.1110   -23.3160 O.co2        1 COA197   0.0000
    30 O5A         -2.0690     7.2660   -21.7840 O.co2        1 COA197  -1.0000
    31 O6A         -0.5360     9.3090   -22.1090 O.3          1 COA197   0.0000
    32 CBP          0.8500     9.3030   -20.1040 C.3          1 COA197   0.0000
    33 CCP          0.6530     8.7970   -21.5360 C.3          1 COA197   0.0000
    34 CDP          2.1850     8.7140   -19.6240 C.3          1 COA197   0.0000
    35 CEP          0.9610    10.8290   -20.1370 C.3          1 COA197   0.0000
    36 CAP         -0.3520     8.8530   -19.2310 C.3          1 COA197   0.0000
    37 OAP         -0.7060     7.5080   -19.4840 O.3          1 COA197   0.0000
    38 C9P         -0.2280     9.1080   -17.7450 C.2          1 COA197   0.0000
    39 O9P         -0.4650    10.3970   -17.2400 O.2          1 COA197   0.0000
    40 N8P          0.0930     8.0880   -16.9370 N.am         1 COA197   0.0000
    41 C7P          0.1220     8.2110   -15.4820 C.3          1 COA197   0.0000
    42 C6P          1.3690     8.9130   -14.9230 C.3          1 COA197   0.0000
    43 C5P          2.6180     8.6870   -15.7630 C.2          1 COA197   0.0000
    44 O5P          3.0060     7.5490   -16.0800 O.2          1 COA197   0.0000
    45 N4P          3.2940     9.7660   -16.1410 N.am         1 COA197   0.0000
    46 C3P          4.4760     9.6410   -16.9700 C.3          1 COA197   0.0000
    47 C2P          5.7410     9.5460   -16.1310 C.3          1 COA197   0.0000
    48 S1P          7.2010     9.2770   -17.1770 S.3          1 COA197   0.0000
    49 H2A          3.6212    -2.0274   -24.1002 H            1 COA197   0.0000
    50 H6A1         0.4965    -1.2469   -19.9024 H            1 COA197   0.0000
    51 H6A2         1.8327    -2.3485   -19.9373 H            1 COA197   0.0000
    52 H8A         -1.3660     1.9271   -22.9540 H            1 COA197   0.0000
    53 H1B          1.1306     1.4636   -25.7931 H            1 COA197   0.0000
    54 H2B         -1.5558     2.3256   -25.3420 H            1 COA197   0.0000
    55 H7          -1.5472     1.5000   -27.6634 H            1 COA197   0.0000
    56 H3B         -1.3110     4.1140   -26.6936 H            1 COA197   0.0000
    57 H4B          1.3861     4.3544   -26.4201 H            1 COA197   0.0000
    58 H5B1         0.9901     5.9026   -24.7787 H            1 COA197   0.0000
    59 H5B2        -0.4552     5.2369   -24.4119 H            1 COA197   0.0000
    60 HCP1         1.4322     9.0855   -22.0925 H            1 COA197   0.0000
    61 HCP2         0.6038     7.7983   -21.5237 H            1 COA197   0.0000
    62 HDP1         2.3644     9.0147   -18.6873 H            1 COA197   0.0000
    63 HDP2         2.1374     7.7155   -19.6502 H            1 COA197   0.0000
    64 HDP3         2.9223     9.0283   -20.2220 H            1 COA197   0.0000
    65 HEP1         1.0901    11.1740   -19.2073 H            1 COA197   0.0000
    66 HEP2         1.7420    11.0943   -20.7025 H            1 COA197   0.0000
    67 HEP3         0.1234    11.2159   -20.5228 H            1 COA197   0.0000
    68 HAP         -1.1304     9.4012   -19.5369 H            1 COA197   0.0000
    69 H21         -1.3849     7.4743   -20.2174 H            1 COA197   0.0000
    70 H8P          0.3223     7.2055   -17.3477 H            1 COA197   0.0000
    71 H7P1         0.0800     7.2917   -15.0906 H            1 COA197   0.0000
    72 H7P2        -0.6828     8.7317   -15.1971 H            1 COA197   0.0000
    73 H6P1         1.5406     8.5672   -14.0005 H            1 COA197   0.0000
    74 H6P2         1.1880     9.8956   -14.8823 H            1 COA197   0.0000
    75 H4P          2.9849    10.6718   -15.8512 H            1 COA197   0.0000
    76 H3P1         4.5409    10.4418   -17.5654 H            1 COA197   0.0000
    77 H3P2         4.3946     8.8158   -17.5289 H            1 COA197   0.0000
    78 H2P1         5.6522     8.7823   -15.4916 H            1 COA197   0.0000
    79 H2P2         5.8582    10.3972   -15.6194 H            1 COA197   0.0000
    80 H1P          6.9210     9.2368   -18.1362 H            1 COA197   0.0000
@<TRIPOS>BOND
     1    1    2      ar
     2    1    6      ar
     3    2    3      ar
     4    3    4      ar
     5    4    5      ar
     6    4   10       1
     7    5    6      ar
     8    5    8       1
     9    6    7       1
    10    8    9       2
    11    9   10       1
    12   10   11       1
    13   11   12       1
    14   11   21       1
    15   12   13       1
    16   12   14       1
    17   14   15       1
    18   14   20       1
    19   15   16       1
    20   16   17      ar
    21   16   18      ar
    22   16   19      ar
    23   20   21       1
    24   20   22       1
    25   22   23       1
    26   23   24       1
    27   24   25      ar
    28   24   26      ar
    29   24   27       1
    30   27   28       1
    31   28   29      ar
    32   28   30      ar
    33   28   31       1
    34   31   33       1
    35   32   33       1
    36   32   34       1
    37   32   35       1
    38   32   36       1
    39   36   37       1
    40   36   38       1
    41   38   39       2
    42   38   40      am
    43   40   41       1
    44   41   42       1
    45   42   43       1
    46   43   44       2
    47   43   45      am
    48   45   46       1
    49   46   47       1
    50   47   48       1
    51    2   49       1
    52    7   50       1
    53    7   51       1
    54    9   52       1
    55   11   53       1
    56   12   54       1
    57   13   55       1
    58   14   56       1
    59   48   80       1
    60   47   79       1
    61   20   57       1
    62   22   58       1
    63   22   59       1
    64   47   78       1
    65   46   77       1
    66   33   60       1
    67   33   61       1
    68   34   62       1
    69   34   63       1
    70   34   64       1
    71   35   65       1
    72   35   66       1
    73   35   67       1
    74   36   68       1
    75   37   69       1
    76   40   70       1
    77   41   71       1
    78   41   72       1
    79   42   73       1
    80   42   74       1
    81   45   75       1
    82   46   76       1
@<TRIPOS>SUBSTRUCTURE
     1 COA197      1 GROUP             4 A     COA     0 **** COA A 197
