@<TRIPOS>MOLECULE
4j1t_NAD_1_ligand
   70    74     1     0     0
SMALL
NO_CHARGES


@<TRIPOS>ATOM
     1 PA         -19.3900     6.6090   -63.0770 P.3          1 NAD500   0.0000
     2 O1A        -19.9470     6.4740   -61.5350 O.co2        1 NAD500   0.0000
     3 O2A        -18.0110     5.8040   -63.4940 O.co2        1 NAD500  -1.0000
     4 O5B        -19.1670     8.1870   -63.4480 O.3          1 NAD500   0.0000
     5 C5B        -19.9290     9.1540   -62.7890 C.3          1 NAD500   0.0000
     6 C4B        -20.5590    10.1070   -63.8030 C.3          1 NAD500   0.0000
     7 O4B        -19.7230    11.2440   -63.6440 O.3          1 NAD500   0.0000
     8 C3B        -20.4080     9.7210   -65.2810 C.3          1 NAD500   0.0000
     9 O3B        -21.6690     9.9150   -65.9340 O.3          1 NAD500   0.0000
    10 C2B        -19.4340    10.7370   -65.9090 C.3          1 NAD500   0.0000
    11 O2B        -19.8480    11.1590   -67.2170 O.3          1 NAD500   0.0000
    12 C1B        -19.4690    11.8730   -64.8850 C.3          1 NAD500   0.0000
    13 N9A        -18.2020    12.5650   -64.7820 N.pl3        1 NAD500   0.0000
    14 C8A        -16.9600    12.0270   -64.8640 C.2          1 NAD500   0.0000
    15 N7A        -16.0500    13.0010   -64.6970 N.2          1 NAD500   0.0000
    16 C5A        -16.7080    14.1700   -64.4930 C.ar         1 NAD500   0.0000
    17 C6A        -16.3080    15.4870   -64.2640 C.ar         1 NAD500   0.0000
    18 N6A        -15.0030    15.8170   -64.2110 N.pl3        1 NAD500   0.0000
    19 N1A        -17.2500    16.4490   -64.1030 N.ar         1 NAD500   0.0000
    20 C2A        -18.5570    16.1280   -64.1620 C.ar         1 NAD500   0.0000
    21 N3A        -18.9760    14.8730   -64.3730 N.ar         1 NAD500   0.0000
    22 C4A        -18.0790    13.8790   -64.5390 C.ar         1 NAD500   0.0000
    23 O3         -20.5450     6.2380   -64.1960 O.3          1 NAD500   0.0000
    24 PN         -21.1130     4.7080   -64.4270 P.3          1 NAD500   0.0000
    25 O1N        -22.6880     4.7690   -64.9090 O.co2        1 NAD500   0.0000
    26 O2N        -20.6640     3.7260   -63.1720 O.co2        1 NAD500  -1.0000
    27 O5D        -20.1380     4.2620   -65.7000 O.3          1 NAD500   0.0000
    28 C5D        -19.6210     5.2530   -66.6180 C.3          1 NAD500   0.0000
    29 C4D        -20.4920     5.0370   -67.8620 C.3          1 NAD500   0.0000
    30 O4D        -20.5180     6.0570   -68.8600 O.3          1 NAD500   0.0000
    31 C3D        -19.9130     3.9170   -68.7120 C.3          1 NAD500   0.0000
    32 O3D        -20.0260     2.6710   -68.0390 O.3          1 NAD500   0.0000
    33 C2D        -20.9570     3.9330   -69.8330 C.3          1 NAD500   0.0000
    34 O2D        -22.0620     3.1230   -69.3960 O.3          1 NAD500   0.0000
    35 C1D        -21.3110     5.4390   -69.8960 C.3          1 NAD500   0.0000
    36 N1N        -21.0340     6.0010   -71.2240 N.ar         1 NAD500   1.0000
    37 C2N        -22.0760     6.1600   -72.0810 C.ar         1 NAD500   0.0000
    38 C3N        -21.8910     6.6780   -73.3680 C.ar         1 NAD500   0.0000
    39 C7N        -23.0730     6.8460   -74.2750 C.2          1 NAD500   0.0000
    40 O7N        -24.0840     7.3970   -73.8520 O.2          1 NAD500   0.0000
    41 N7N        -22.9730     6.3720   -75.5320 N.am         1 NAD500   0.0000
    42 C4N        -20.6030     7.0400   -73.7960 C.ar         1 NAD500   0.0000
    43 C5N        -19.5440     6.8600   -72.8970 C.ar         1 NAD500   0.0000
    44 C6N        -19.7740     6.3380   -71.6150 C.ar         1 NAD500   0.0000
    45 H5B1       -19.3405     9.6728   -62.1689 H            1 NAD500   0.0000
    46 H5B2       -20.6519     8.7044   -62.2643 H            1 NAD500   0.0000
    47 H4B        -21.5097    10.3141   -63.5720 H            1 NAD500   0.0000
    48 H3B        -20.0794     8.7823   -65.3852 H            1 NAD500   0.0000
    49 H5         -21.9394    10.8748   -65.8582 H            1 NAD500   0.0000
    50 H2B        -18.5148    10.3457   -65.9524 H            1 NAD500   0.0000
    51 H7         -20.4350    11.9647   -67.1371 H            1 NAD500   0.0000
    52 H1B        -20.2011    12.5177   -65.1050 H            1 NAD500   0.0000
    53 H8A        -16.7547    11.0613   -65.0231 H            1 NAD500   0.0000
    54 H6A1       -14.7335    16.7657   -64.0460 H            1 NAD500   0.0000
    55 H6A2       -14.3038    15.1132   -64.3367 H            1 NAD500   0.0000
    56 H2A        -19.2377    16.8511   -64.0443 H            1 NAD500   0.0000
    57 H5D1       -18.6553     5.0900   -66.8199 H            1 NAD500   0.0000
    58 H5D2       -19.7339     6.1773   -66.2535 H            1 NAD500   0.0000
    59 H4D        -21.4256     4.8069   -67.5872 H            1 NAD500   0.0000
    60 H3D        -18.9859     4.1071   -69.0350 H            1 NAD500   0.0000
    61 H17        -19.9864     2.8209   -67.0511 H            1 NAD500   0.0000
    62 H2D        -20.5768     3.6054   -70.6979 H            1 NAD500   0.0000
    63 H19        -21.7279     2.4045   -68.7860 H            1 NAD500   0.0000
    64 H1D        -22.2809     5.5584   -69.6837 H            1 NAD500   0.0000
    65 H2N        -22.9957     5.9012   -71.7857 H            1 NAD500   0.0000
    66 H7N1       -23.7417     6.4665   -76.1646 H            1 NAD500   0.0000
    67 H7N2       -22.1301     5.9256   -75.8325 H            1 NAD500   0.0000
    68 H4N        -20.4475     7.4132   -74.7106 H            1 NAD500   0.0000
    69 H5N        -18.6145     7.1060   -73.1717 H            1 NAD500   0.0000
    70 H6N        -19.0079     6.2127   -70.9847 H            1 NAD500   0.0000
@<TRIPOS>BOND
     1    1    2      ar
     2    1    3      ar
     3    1    4       1
     4    1   23       1
     5    4    5       1
     6    5    6       1
     7    6    7       1
     8    6    8       1
     9    7   12       1
    10    8    9       1
    11    8   10       1
    12   10   11       1
    13   10   12       1
    14   12   13       1
    15   13   14       1
    16   13   22       1
    17   14   15       2
    18   15   16       1
    19   16   17      ar
    20   16   22      ar
    21   17   18       1
    22   17   19      ar
    23   19   20      ar
    24   20   21      ar
    25   21   22      ar
    26   23   24       1
    27   24   25      ar
    28   24   26      ar
    29   24   27       1
    30   27   28       1
    31   28   29       1
    32   29   30       1
    33   29   31       1
    34   30   35       1
    35   31   32       1
    36   31   33       1
    37   33   34       1
    38   33   35       1
    39   35   36       1
    40   36   37      ar
    41   36   44      ar
    42   37   38      ar
    43   38   39       1
    44   38   42      ar
    45   39   40       2
    46   39   41      am
    47   42   43      ar
    48   43   44      ar
    49   44   70       1
    50    5   45       1
    51    5   46       1
    52    6   47       1
    53    8   48       1
    54    9   49       1
    55   10   50       1
    56   11   51       1
    57   12   52       1
    58   14   53       1
    59   18   54       1
    60   18   55       1
    61   20   56       1
    62   43   69       1
    63   28   57       1
    64   28   58       1
    65   29   59       1
    66   31   60       1
    67   32   61       1
    68   33   62       1
    69   34   63       1
    70   35   64       1
    71   37   65       1
    72   41   66       1
    73   41   67       1
    74   42   68       1
@<TRIPOS>SUBSTRUCTURE
     1 NAD500      1 GROUP             4 B     NAD     0 **** NAD B 500
