@<TRIPOS>MOLECULE
5frd_COA_2_ligand
   80    82     1     0     0
SMALL
NO_CHARGES


@<TRIPOS>ATOM
     1 N1A        -23.5910    11.6270    22.9250 N.ar         1 COA1255   0.0000
     2 C2A        -24.3610    12.1410    21.9510 C.ar         1 COA1255   0.0000
     3 N3A        -25.1860    13.1920    22.1510 N.ar         1 COA1255   0.0000
     4 C4A        -25.2300    13.7120    23.3920 C.ar         1 COA1255   0.0000
     5 C5A        -24.4090    13.1940    24.4650 C.ar         1 COA1255   0.0000
     6 C6A        -23.5630    12.0380    24.2030 C.ar         1 COA1255   0.0000
     7 N6A        -22.7830    11.5240    25.1590 N.pl3        1 COA1255   0.0000
     8 N7A        -24.6510    13.9000    25.5820 N.2          1 COA1255   0.0000
     9 C8A        -25.5640    14.8340    25.2170 C.2          1 COA1255   0.0000
    10 N9A        -25.9150    14.7290    23.9110 N.pl3        1 COA1255   0.0000
    11 C1B        -26.9060    15.5590    23.2100 C.3          1 COA1255   0.0000
    12 C2B        -28.3020    15.2130    23.7030 C.3          1 COA1255   0.0000
    13 O2B        -28.8820    14.0910    23.0130 O.3          1 COA1255   0.0000
    14 C3B        -29.0090    16.5360    23.5140 C.3          1 COA1255   0.0000
    15 O3B        -29.4160    16.5890    22.1410 O.3          1 COA1255   0.0000
    16 P3B        -30.8350    17.2470    21.7140 P.3          1 COA1255   0.0000
    17 O7A        -31.8730    16.3210    22.2950 O.co2        1 COA1255   0.0000
    18 O8A        -30.8150    18.5790    22.4320 O.co2        1 COA1255  -1.0000
    19 O9A        -30.7330    17.3100    20.2100 O.co2        1 COA1255  -1.0000
    20 C4B        -27.9020    17.5430    23.7550 C.3          1 COA1255   0.0000
    21 O4B        -26.6430    16.9130    23.5010 O.3          1 COA1255   0.0000
    22 C5B        -27.8450    18.1220    25.1780 C.3          1 COA1255   0.0000
    23 O5B        -27.7460    17.0350    26.1150 O.3          1 COA1255   0.0000
    24 P1A        -27.2450    17.2450    27.5770 P.3          1 COA1255   0.0000
    25 O1A        -27.0880    15.8280    28.2010 O.co2        1 COA1255   0.0000
    26 O2A        -26.0300    18.0740    27.6170 O.co2        1 COA1255  -1.0000
    27 O3A        -28.4670    18.0410    28.3810 O.3          1 COA1255   0.0000
    28 P2A        -30.0130    17.7980    28.3900 P.3          1 COA1255   0.0000
    29 O4A        -30.5980    17.5680    27.0830 O.co2        1 COA1255   0.0000
    30 O5A        -30.5520    18.9160    29.2770 O.co2        1 COA1255  -1.0000
    31 O6A        -30.0960    16.3770    29.1900 O.3          1 COA1255   0.0000
    32 CBP        -30.0210    14.8410    30.9860 C.3          1 COA1255   0.0000
    33 CCP        -29.6490    16.2560    30.5330 C.3          1 COA1255   0.0000
    34 CDP        -29.3380    14.6560    32.3350 C.3          1 COA1255   0.0000
    35 CEP        -31.5290    14.7090    31.0550 C.3          1 COA1255   0.0000
    36 CAP        -29.4620    13.8380    29.9700 C.3          1 COA1255   0.0000
    37 OAP        -28.0400    14.0490    29.8860 O.3          1 COA1255   0.0000
    38 C9P        -29.7180    12.4040    30.3330 C.2          1 COA1255   0.0000
    39 O9P        -30.8410    11.9480    30.2160 O.2          1 COA1255   0.0000
    40 N8P        -28.6400    11.7090    30.6870 N.am         1 COA1255   0.0000
    41 C7P        -28.6820    10.2320    30.8310 C.3          1 COA1255   0.0000
    42 C6P        -28.9980     9.7240    32.2440 C.3          1 COA1255   0.0000
    43 C5P        -27.8460     9.7820    33.1950 C.2          1 COA1255   0.0000
    44 O5P        -27.9680    10.2030    34.3500 O.2          1 COA1255   0.0000
    45 N4P        -26.6670     9.2770    32.8230 N.am         1 COA1255   0.0000
    46 C3P        -25.5270     9.1030    33.6760 C.3          1 COA1255   0.0000
    47 C2P        -24.2180     9.3650    32.9360 C.3          1 COA1255   0.0000
    48 S1P        -22.7780     9.0710    33.9720 S.3          1 COA1255   0.0000
    49 H2A        -24.3217    11.7287    21.0408 H            1 COA1255   0.0000
    50 H6A1       -22.8245    11.8900    26.0887 H            1 COA1255   0.0000
    51 H6A2       -22.1579    10.7735    24.9445 H            1 COA1255   0.0000
    52 H8A        -25.9362    15.5220    25.8400 H            1 COA1255   0.0000
    53 H1B        -26.8444    15.4039    22.2240 H            1 COA1255   0.0000
    54 H2B        -28.2585    15.0054    24.6802 H            1 COA1255   0.0000
    55 H7         -29.3872    14.4162    22.2136 H            1 COA1255   0.0000
    56 H3B        -29.7761    16.6530    24.1448 H            1 COA1255   0.0000
    57 H4B        -28.0145    18.2985    23.1095 H            1 COA1255   0.0000
    58 H5B1       -28.6752    18.6488    25.3604 H            1 COA1255   0.0000
    59 H5B2       -27.0463    18.7170    25.2674 H            1 COA1255   0.0000
    60 HCP1       -30.1022    16.9346    31.1109 H            1 COA1255   0.0000
    61 HCP2       -28.6586    16.3854    30.5810 H            1 COA1255   0.0000
    62 HDP1       -29.5423    13.7436    32.6897 H            1 COA1255   0.0000
    63 HDP2       -28.3493    14.7570    32.2247 H            1 COA1255   0.0000
    64 HDP3       -29.6741    15.3459    32.9762 H            1 COA1255   0.0000
    65 HEP1       -31.7695    13.7846    31.3509 H            1 COA1255   0.0000
    66 HEP2       -31.8922    15.3732    31.7084 H            1 COA1255   0.0000
    67 HEP3       -31.9205    14.8821    30.1512 H            1 COA1255   0.0000
    68 HAP        -29.8695    14.0227    29.0757 H            1 COA1255   0.0000
    69 H21        -27.8446    14.7241    29.1747 H            1 COA1255   0.0000
    70 H8P        -27.7820    12.1926    30.8600 H            1 COA1255   0.0000
    71 H7P1       -27.7892     9.8693    30.5639 H            1 COA1255   0.0000
    72 H7P2       -29.3836     9.8802    30.2113 H            1 COA1255   0.0000
    73 H6P1       -29.2979     8.7726    32.1742 H            1 COA1255   0.0000
    74 H6P2       -29.7399    10.2808    32.6176 H            1 COA1255   0.0000
    75 H4P        -26.5707     8.9961    31.8681 H            1 COA1255   0.0000
    76 H3P1       -25.5213     8.1643    34.0208 H            1 COA1255   0.0000
    77 H3P2       -25.5975     9.7397    34.4439 H            1 COA1255   0.0000
    78 H2P1       -24.2059    10.3173    32.6312 H            1 COA1255   0.0000
    79 H2P2       -24.1713     8.7600    32.1411 H            1 COA1255   0.0000
    80 H1P        -21.9468     9.2546    33.4473 H            1 COA1255   0.0000
@<TRIPOS>BOND
     1    1    2      ar
     2    1    6      ar
     3    2    3      ar
     4    3    4      ar
     5    4    5      ar
     6    4   10       1
     7    5    6      ar
     8    5    8       1
     9    6    7       1
    10    8    9       2
    11    9   10       1
    12   10   11       1
    13   11   12       1
    14   11   21       1
    15   12   13       1
    16   12   14       1
    17   14   15       1
    18   14   20       1
    19   15   16       1
    20   16   17      ar
    21   16   18      ar
    22   16   19      ar
    23   20   21       1
    24   20   22       1
    25   22   23       1
    26   23   24       1
    27   24   25      ar
    28   24   26      ar
    29   24   27       1
    30   27   28       1
    31   28   29      ar
    32   28   30      ar
    33   28   31       1
    34   31   33       1
    35   32   33       1
    36   32   34       1
    37   32   35       1
    38   32   36       1
    39   36   37       1
    40   36   38       1
    41   38   39       2
    42   38   40      am
    43   40   41       1
    44   41   42       1
    45   42   43       1
    46   43   44       2
    47   43   45      am
    48   45   46       1
    49   46   47       1
    50   47   48       1
    51    2   49       1
    52    7   50       1
    53    7   51       1
    54    9   52       1
    55   11   53       1
    56   12   54       1
    57   13   55       1
    58   14   56       1
    59   48   80       1
    60   47   79       1
    61   20   57       1
    62   22   58       1
    63   22   59       1
    64   47   78       1
    65   46   77       1
    66   33   60       1
    67   33   61       1
    68   34   62       1
    69   34   63       1
    70   34   64       1
    71   35   65       1
    72   35   66       1
    73   35   67       1
    74   36   68       1
    75   37   69       1
    76   40   70       1
    77   41   71       1
    78   41   72       1
    79   42   73       1
    80   42   74       1
    81   45   75       1
    82   46   76       1
@<TRIPOS>SUBSTRUCTURE
     1 COA1255     1 GROUP             4 B     COA     0 **** COA B1255
