@<TRIPOS>MOLECULE
3te5_NAI_1_ligand
   71    75     1     0     0
SMALL
NO_CHARGES


@<TRIPOS>ATOM
     1 PA         -31.3670    65.9410    -2.5540 P.3          1 NAI324   0.0000
     2 O1A        -30.5940    64.7030    -2.7850 O.co2        1 NAI324   0.0000
     3 O2A        -31.9620    66.6370    -3.7010 O.co2        1 NAI324  -1.0000
     4 O5B        -30.5200    66.9200    -1.5820 O.3          1 NAI324   0.0000
     5 C5B        -29.3780    67.6670    -1.9520 C.3          1 NAI324   0.0000
     6 C4B        -29.2660    68.9630    -1.1200 C.3          1 NAI324   0.0000
     7 O4B        -28.7670    69.9790    -1.9970 O.3          1 NAI324   0.0000
     8 C3B        -30.6040    69.5430    -0.6580 C.3          1 NAI324   0.0000
     9 O3B        -30.3610    70.5530     0.3480 O.3          1 NAI324   0.0000
    10 C2B        -31.1600    70.1810    -1.9290 C.3          1 NAI324   0.0000
    11 O2B        -31.9650    71.3480    -1.6520 O.3          1 NAI324   0.0000
    12 C1B        -29.9010    70.5870    -2.6850 C.3          1 NAI324   0.0000
    13 N9A        -29.9320    70.1460    -4.1040 N.pl3        1 NAI324   0.0000
    14 C8A        -30.6840    69.2250    -4.7090 C.2          1 NAI324   0.0000
    15 N7A        -30.3490    69.1960    -5.9940 N.2          1 NAI324   0.0000
    16 C5A        -29.3850    70.1000    -6.1880 C.ar         1 NAI324   0.0000
    17 C6A        -28.7000    70.4650    -7.2760 C.ar         1 NAI324   0.0000
    18 N6A        -28.9970    69.8410    -8.4060 N.pl3        1 NAI324   0.0000
    19 N1A        -27.7560    71.4180    -7.2360 N.ar         1 NAI324   0.0000
    20 C2A        -27.4710    72.0510    -6.0220 C.ar         1 NAI324   0.0000
    21 N3A        -28.1930    71.6480    -4.9010 N.ar         1 NAI324   0.0000
    22 C4A        -29.1280    70.6870    -5.0120 C.ar         1 NAI324   0.0000
    23 O3         -32.5240    65.7380    -1.4490 O.3          1 NAI324   0.0000
    24 PN         -33.2730    64.3720    -1.1670 P.3          1 NAI324   0.0000
    25 O1N        -33.6020    63.7590    -2.4700 O.co2        1 NAI324   0.0000
    26 O2N        -34.3600    64.6960    -0.2170 O.co2        1 NAI324  -1.0000
    27 O5D        -32.1360    63.4410    -0.5240 O.3          1 NAI324   0.0000
    28 C5D        -31.9450    63.2570     0.8790 C.3          1 NAI324   0.0000
    29 C4D        -30.4520    63.0180     1.1420 C.3          1 NAI324   0.0000
    30 O4D        -29.9120    62.0800     0.1740 O.3          1 NAI324   0.0000
    31 C3D        -29.6810    64.3290     0.9420 C.3          1 NAI324   0.0000
    32 O3D        -28.9160    64.5960     2.1320 O.3          1 NAI324   0.0000
    33 C2D        -28.7740    64.0390    -0.2440 C.3          1 NAI324   0.0000
    34 O2D        -27.5140    64.7230    -0.1190 O.3          1 NAI324   0.0000
    35 C1D        -28.5730    62.5440    -0.0970 C.3          1 NAI324   0.0000
    36 N1N        -27.9550    61.9450    -1.3100 N.pl3        1 NAI324   0.0000
    37 C2N        -26.6290    61.4620    -1.2270 C.2          1 NAI324   0.0000
    38 C3N        -26.0040    60.8910    -2.3430 C.2          1 NAI324   0.0000
    39 C7N        -24.6850    60.4220    -2.2340 C.2          1 NAI324   0.0000
    40 O7N        -24.0420    60.5790    -1.1950 O.2          1 NAI324   0.0000
    41 N7N        -24.1810    59.8030    -3.3060 N.am         1 NAI324   0.0000
    42 C4N        -26.7170    60.8100    -3.5480 C.3          1 NAI324   0.0000
    43 C5N        -28.0310    61.2810    -3.6430 C.2          1 NAI324   0.0000
    44 C6N        -28.6620    61.8490    -2.5330 C.2          1 NAI324   0.0000
    45 H5B1       -29.4441    67.9058    -2.9208 H            1 NAI324   0.0000
    46 H5B2       -28.5610    67.1105    -1.8008 H            1 NAI324   0.0000
    47 H4B        -28.6500    68.8325    -0.3432 H            1 NAI324   0.0000
    48 H3B        -31.2117    68.8268    -0.3148 H            1 NAI324   0.0000
    49 H5         -31.2329    70.9356     0.6536 H            1 NAI324   0.0000
    50 H2B        -31.6839    69.5118    -2.4560 H            1 NAI324   0.0000
    51 H7         -32.7379    71.0899    -1.0723 H            1 NAI324   0.0000
    52 H1B        -29.8073    71.5821    -2.6537 H            1 NAI324   0.0000
    53 H8A        -31.3794    68.6552    -4.2710 H            1 NAI324   0.0000
    54 H6A1       -28.5137    70.0765    -9.2492 H            1 NAI324   0.0000
    55 H6A2       -29.7045    69.1344    -8.4159 H            1 NAI324   0.0000
    56 H2A        -26.7748    72.7663    -5.9609 H            1 NAI324   0.0000
    57 H5D1       -32.4727    62.4666     1.1902 H            1 NAI324   0.0000
    58 H5D2       -32.2472    64.0739     1.3702 H            1 NAI324   0.0000
    59 H4D        -30.3149    62.6741     2.0709 H            1 NAI324   0.0000
    60 H3D        -30.3046    65.0842     0.7400 H            1 NAI324   0.0000
    61 H17        -28.4070    65.4490     2.0167 H            1 NAI324   0.0000
    62 H2D        -29.2242    64.2618    -1.1087 H            1 NAI324   0.0000
    63 H19        -27.1578    64.9345    -1.0292 H            1 NAI324   0.0000
    64 H1D        -27.9915    62.3631     0.6962 H            1 NAI324   0.0000
    65 H2N        -26.1317    61.5287    -0.3620 H            1 NAI324   0.0000
    66 H7N1       -23.2462    59.4484    -3.2851 H            1 NAI324   0.0000
    67 H7N2       -24.7387    59.6945    -4.1289 H            1 NAI324   0.0000
    68 H4N1       -26.7436    59.8420    -3.7976 H            1 NAI324   0.0000
    69 H4N2       -26.1846    61.3149    -4.2274 H            1 NAI324   0.0000
    70 H5N        -28.5221    61.2107    -4.5113 H            1 NAI324   0.0000
    71 H6N        -29.6018    62.1837    -2.6016 H            1 NAI324   0.0000
@<TRIPOS>BOND
     1    1    2      ar
     2    1    3      ar
     3    1    4       1
     4    1   23       1
     5    4    5       1
     6    5    6       1
     7    6    7       1
     8    6    8       1
     9    7   12       1
    10    8    9       1
    11    8   10       1
    12   10   11       1
    13   10   12       1
    14   12   13       1
    15   13   14       1
    16   13   22       1
    17   14   15       2
    18   15   16       1
    19   16   17      ar
    20   16   22      ar
    21   17   18       1
    22   17   19      ar
    23   19   20      ar
    24   20   21      ar
    25   21   22      ar
    26   23   24       1
    27   24   25      ar
    28   24   26      ar
    29   24   27       1
    30   27   28       1
    31   28   29       1
    32   29   30       1
    33   29   31       1
    34   30   35       1
    35   31   32       1
    36   31   33       1
    37   33   34       1
    38   33   35       1
    39   35   36       1
    40   36   37       1
    41   36   44       1
    42   37   38       2
    43   38   39       1
    44   38   42       1
    45   39   40       2
    46   39   41      am
    47   42   43       1
    48   43   44       2
    49   44   71       1
    50    5   45       1
    51    5   46       1
    52    6   47       1
    53    8   48       1
    54    9   49       1
    55   10   50       1
    56   11   51       1
    57   12   52       1
    58   14   53       1
    59   18   54       1
    60   18   55       1
    61   20   56       1
    62   43   70       1
    63   28   57       1
    64   28   58       1
    65   29   59       1
    66   31   60       1
    67   32   61       1
    68   33   62       1
    69   34   63       1
    70   35   64       1
    71   37   65       1
    72   41   66       1
    73   41   67       1
    74   42   68       1
    75   42   69       1
@<TRIPOS>SUBSTRUCTURE
     1 NAI324      1 GROUP             4 C     NAI     0 **** NAI C 324
