@<TRIPOS>MOLECULE
4kwi_1TJ_2_ligand
   36    39     1     0     0
SMALL
NO_CHARGES


@<TRIPOS>ATOM
     1 OAD          4.0500    -8.9470    -9.7670 O.2          1 1TJ302   0.0000
     2 CAV          3.4060    -9.6490   -10.5450 C.2          1 1TJ302   0.0000
     3 CAT          3.4810   -11.0520   -10.4920 C.ar         1 1TJ302   0.0000
     4 CAS          4.2390   -11.8220    -9.5530 C.ar         1 1TJ302   0.0000
     5 CAO          5.4210   -11.4160    -8.8720 C.ar         1 1TJ302   0.0000
     6 OAE          5.9340   -10.1740    -9.1150 O.3          1 1TJ302   0.0000
     7 CAJ          6.0760   -12.2640    -7.9630 C.ar         1 1TJ302   0.0000
     8 CAN          5.5680   -13.5410    -7.7140 C.ar         1 1TJ302   0.0000
     9 CAA          6.1970   -14.3960    -6.8180 C.3          1 1TJ302   0.0000
    10 CAK          4.4130   -13.9660    -8.3670 C.ar         1 1TJ302   0.0000
    11 CAQ          3.7510   -13.1220    -9.2600 C.ar         1 1TJ302   0.0000
    12 CAL          2.6090   -13.5940    -9.9230 C.ar         1 1TJ302   0.0000
    13 CAM          2.8180   -13.1620   -11.2290 C.ar         1 1TJ302   0.0000
    14 OAB          3.2960   -13.9000   -12.0940 O.3          1 1TJ302   0.0000
    15 CAR          2.7010   -11.7870   -11.3910 C.ar         1 1TJ302   0.0000
    16 CAU          1.8690   -11.1830   -12.3460 C.2          1 1TJ302   0.0000
    17 OAC          1.2050   -11.8730   -13.1320 O.2          1 1TJ302   0.0000
    18 CAX          1.8160    -9.7760   -12.3980 C.ar         1 1TJ302   0.0000
    19 CAW          2.5870    -9.0240   -11.4950 C.ar         1 1TJ302   0.0000
    20 CAI          2.5440    -7.6250   -11.5400 C.ar         1 1TJ302   0.0000
    21 CAG          1.7460    -6.9590   -12.4700 C.ar         1 1TJ302   0.0000
    22 CAH          0.9880    -7.6920   -13.3820 C.ar         1 1TJ302   0.0000
    23 CAP          1.0250    -9.0850   -13.3370 C.ar         1 1TJ302   0.0000
    24 OAF          0.2900    -9.8160   -14.2110 O.3          1 1TJ302   0.0000
    25 HAE          5.4798    -9.5636    -9.7640 H            1 1TJ302   0.0000
    26 HAJ          6.9038   -11.9540    -7.4955 H            1 1TJ302   0.0000
    27 HAA1         5.6932   -15.2586    -6.7707 H            1 1TJ302   0.0000
    28 HAA2         7.1319   -14.5724    -7.1259 H            1 1TJ302   0.0000
    29 HAA3         6.2187   -13.9725    -5.9124 H            1 1TJ302   0.0000
    30 HAK          4.0552   -14.8837    -8.1944 H            1 1TJ302   0.0000
    31 HAL          1.8382   -14.1111    -9.5508 H            1 1TJ302   0.0000
    32 HAB          3.4331   -13.5575   -13.0234 H            1 1TJ302   0.0000
    33 HAI          3.0943    -7.0949   -10.8949 H            1 1TJ302   0.0000
    34 HAG          1.7177    -5.9595   -12.4826 H            1 1TJ302   0.0000
    35 HAH          0.4235    -7.2234   -14.0615 H            1 1TJ302   0.0000
    36 HAF          0.3200   -10.8150   -14.1764 H            1 1TJ302   0.0000
@<TRIPOS>BOND
     1    1    2       2
     2    2    3       1
     3    2   19       1
     4    3    4      ar
     5    3   15      ar
     6    4    5      ar
     7    4   11      ar
     8    5    6       1
     9    5    7      ar
    10    7    8      ar
    11    8    9       1
    12    8   10      ar
    13   10   11      ar
    14   11   12      ar
    15   12   13      ar
    16   13   14       1
    17   13   15      ar
    18   15   16       1
    19   16   17       2
    20   16   18       1
    21   18   19      ar
    22   18   23      ar
    23   19   20      ar
    24   20   21      ar
    25   21   22      ar
    26   22   23      ar
    27   23   24       1
    28    6   25       1
    29    7   26       1
    30    9   27       1
    31    9   28       1
    32    9   29       1
    33   10   30       1
    34   12   31       1
    35   14   32       1
    36   20   33       1
    37   21   34       1
    38   22   35       1
    39   24   36       1
@<TRIPOS>SUBSTRUCTURE
     1 1TJ302      1 GROUP             4 B     1TJ     0 **** 1TJ B 302
