@<TRIPOS>MOLECULE
1h65_GDP_2_ligand
   40    42     1     0     0
SMALL
NO_CHARGES


@<TRIPOS>ATOM
     1 PB          29.2330    52.5390    18.8780 P.3          1 GDP281   0.0000
     2 O1B         28.2430    53.2010    19.6870 O.co2        1 GDP281   0.0000
     3 O2B         28.7930    51.8160    17.6780 O.co2        1 GDP281  -1.0000
     4 O3B         30.0260    51.5250    19.7420 O.co2        1 GDP281  -1.0000
     5 O3A         30.3840    53.4990    18.4410 O.3          1 GDP281   0.0000
     6 PA          31.9860    53.2380    18.3820 P.3          1 GDP281   0.0000
     7 O1A         32.2290    51.9220    17.7250 O.co2        1 GDP281   0.0000
     8 O2A         32.5920    53.4570    19.7160 O.co2        1 GDP281  -1.0000
     9 O5'         32.3750    54.3040    17.4890 O.3          1 GDP281   0.0000
    10 C5'         31.7490    54.4940    16.2230 C.3          1 GDP281   0.0000
    11 C4'         32.6500    55.2580    15.3040 C.3          1 GDP281   0.0000
    12 O4'         32.8560    56.5890    15.8050 O.3          1 GDP281   0.0000
    13 C3'         34.0390    54.6860    15.1180 C.3          1 GDP281   0.0000
    14 O3'         34.4830    54.8020    13.8050 O.3          1 GDP281   0.0000
    15 C2'         34.8970    55.4900    16.0450 C.3          1 GDP281   0.0000
    16 O2'         36.1890    55.5730    15.4600 O.3          1 GDP281   0.0000
    17 C1'         34.2420    56.8530    15.9170 C.3          1 GDP281   0.0000
    18 N9          34.4550    57.6560    17.1320 N.pl3        1 GDP281   0.0000
    19 C8          33.8880    57.4040    18.3490 C.2          1 GDP281   0.0000
    20 N7          34.0780    58.3360    19.2140 N.2          1 GDP281   0.0000
    21 C5          34.6530    59.3640    18.4940 C.2          1 GDP281   0.0000
    22 C6          34.9900    60.5090    18.9100 C.2          1 GDP281   0.0000
    23 O6          34.9310    60.9070    20.0560 O.2          1 GDP281   0.0000
    24 N1          35.4720    61.3360    17.9170 N.pl3        1 GDP281   0.0000
    25 C2          35.7010    60.9570    16.6540 C.2          1 GDP281   0.0000
    26 N2          36.2530    61.8850    15.8760 N.pl3        1 GDP281   0.0000
    27 N3          35.4280    59.7420    16.2100 N.2          1 GDP281   0.0000
    28 C4          34.9490    58.9720    17.2180 C.2          1 GDP281   0.0000
    29 H5'1        30.8983    55.0042    16.3495 H            1 GDP281   0.0000
    30 H5'2        31.5459    53.6021    15.8188 H            1 GDP281   0.0000
    31 H4'         32.2101    55.3207    14.4081 H            1 GDP281   0.0000
    32 H3'         34.0493    53.7252    15.3951 H            1 GDP281   0.0000
    33 H5          34.0733    55.6118    13.3849 H            1 GDP281   0.0000
    34 H2'         34.9066    55.1400    16.9817 H            1 GDP281   0.0000
    35 H7          36.1935    55.0794    14.5903 H            1 GDP281   0.0000
    36 H1'         34.5789    57.3351    15.1083 H            1 GDP281   0.0000
    37 H9          33.3723    56.5708    18.5488 H            1 GDP281   0.0000
    38 H10         35.6642    62.2873    18.1581 H            1 GDP281   0.0000
    39 H11         36.4554    61.6790    14.9186 H            1 GDP281   0.0000
    40 H12         36.4654    62.7883    16.2488 H            1 GDP281   0.0000
@<TRIPOS>BOND
     1    1    2      ar
     2    1    3      ar
     3    1    4      ar
     4    1    5       1
     5    5    6       1
     6    6    7      ar
     7    6    8      ar
     8    6    9       1
     9    9   10       1
    10   10   11       1
    11   11   12       1
    12   11   13       1
    13   12   17       1
    14   13   14       1
    15   13   15       1
    16   15   16       1
    17   15   17       1
    18   17   18       1
    19   18   19       1
    20   18   28       1
    21   19   20       2
    22   20   21       1
    23   21   22       1
    24   21   28       2
    25   22   23       2
    26   22   24       1
    27   24   25       1
    28   25   26       1
    29   25   27       2
    30   27   28       1
    31   26   40       1
    32   26   39       1
    33   24   38       1
    34   10   29       1
    35   10   30       1
    36   11   31       1
    37   13   32       1
    38   14   33       1
    39   15   34       1
    40   16   35       1
    41   17   36       1
    42   19   37       1
@<TRIPOS>SUBSTRUCTURE
     1 GDP281      1 GROUP             4 B     GDP     0 **** GDP B 281
