@<TRIPOS>MOLECULE
3e7g_AT2_8_ligand
   41    42     1     0     0
SMALL
NO_CHARGES


@<TRIPOS>ATOM
     1 C1          38.5270    37.7140    27.2750 C.3          1 AT23906   0.0000
     2 C2          37.6330    37.8560    28.4980 C.ar         1 AT23906   0.0000
     3 C3          37.1350    39.1120    28.8530 C.ar         1 AT23906   0.0000
     4 C4          36.2990    39.2510    30.0000 C.ar         1 AT23906   0.0000
     5 C6          36.4760    36.8620    30.4290 C.ar         1 AT23906   0.0000
     6 C7          37.3200    36.7320    29.2700 C.ar         1 AT23906   0.0000
     7 C9          36.6230    34.4160    31.0410 C.3          1 AT23906   0.0000
     8 C10         38.1410    34.3650    31.4550 C.3          1 AT23906   0.0000
     9 C11         38.3610    34.6520    32.9600 C.3          1 AT23906   0.0000
    10 N5          35.9680    38.1330    30.7790 N.ar         1 AT23906   1.0000
    11 N8          36.1520    35.7860    31.2290 N.pl3        1 AT23906   0.0000
    12 N12         37.5530    33.7030    33.7450 N.am         1 AT23906   0.0000
    13 C13         36.0920    33.8110    33.4520 C.3          1 AT23906   0.0000
    14 C14         35.8500    33.4800    31.9910 C.3          1 AT23906   0.0000
    15 C15         38.0730    32.8180    34.6240 C.2          1 AT23906   0.0000
    16 O16         39.3300    32.7850    34.8200 O.2          1 AT23906   0.0000
    17 O17         37.1710    32.0100    35.2210 O.3          1 AT23906   0.0000
    18 C18         37.6240    31.0360    36.1390 C.3          1 AT23906   0.0000
    19 C19         36.3580    30.2750    36.5580 C.3          1 AT23906   0.0000
    20 H1          38.7925    36.7561    27.1656 H            1 AT23906   0.0000
    21 H2          38.0301    38.0171    26.4619 H            1 AT23906   0.0000
    22 H3          39.3459    38.2754    27.3937 H            1 AT23906   0.0000
    23 H4          37.3649    39.9144    28.3023 H            1 AT23906   0.0000
    24 H5          35.9462    40.1525    30.2506 H            1 AT23906   0.0000
    25 H6          37.6836    35.8357    29.0160 H            1 AT23906   0.0000
    26 H7          36.5062    34.1294    30.0901 H            1 AT23906   0.0000
    27 H8          38.6407    35.0485    30.9228 H            1 AT23906   0.0000
    28 H9          38.4985    33.4544    31.2476 H            1 AT23906   0.0000
    29 H10         38.0779    35.5881    33.1689 H            1 AT23906   0.0000
    30 H11         39.3283    34.5379    33.1864 H            1 AT23906   0.0000
    31 H12         35.5431    35.9584    32.0033 H            1 AT23906   0.0000
    32 H13         35.7813    34.7428    33.6397 H            1 AT23906   0.0000
    33 H14         35.5869    33.1687    34.0285 H            1 AT23906   0.0000
    34 H15         36.1420    32.5386    31.8223 H            1 AT23906   0.0000
    35 H16         34.8721    33.5649    31.8001 H            1 AT23906   0.0000
    36 H17         38.0524    31.4706    36.9312 H            1 AT23906   0.0000
    37 H18         38.2785    30.4183    35.7031 H            1 AT23906   0.0000
    38 H19         36.6004    29.5608    37.2146 H            1 AT23906   0.0000
    39 H20         35.7115    30.9104    36.9802 H            1 AT23906   0.0000
    40 H21         35.9376    29.8581    35.7521 H            1 AT23906   0.0000
    41 H22         35.3755    38.2348    31.5781 H            1 AT23906   0.0000
@<TRIPOS>BOND
     1    1    2       1
     2    2    3      ar
     3    2    6      ar
     4    3    4      ar
     5    4   10      ar
     6    5    6      ar
     7    5   10      ar
     8    5   11       1
     9    7    8       1
    10    7   11       1
    11    7   14       1
    12    8    9       1
    13    9   12       1
    14   12   13       1
    15   12   15      am
    16   13   14       1
    17   15   16       2
    18   15   17       1
    19   17   18       1
    20   18   19       1
    21    1   20       1
    22    1   21       1
    23    1   22       1
    24    3   23       1
    25    4   24       1
    26    6   25       1
    27    7   26       1
    28    8   27       1
    29    8   28       1
    30    9   29       1
    31    9   30       1
    32   11   31       1
    33   13   32       1
    34   13   33       1
    35   14   34       1
    36   14   35       1
    37   18   36       1
    38   18   37       1
    39   19   38       1
    40   19   39       1
    41   19   40       1
    42   10   41       1
@<TRIPOS>SUBSTRUCTURE
     1 AT23906     1 GROUP             4 D     AT2     0 **** AT2 D3906
