@<TRIPOS>MOLECULE
3e3u_NVC_1_ligand
   50    52     1     0     0
SMALL
NO_CHARGES


@<TRIPOS>ATOM
     1 O28         20.3620    53.7950    15.9130 O.2          1 NVC201   0.0000
     2 C27         20.1420    54.9940    15.9300 C.2          1 NVC201   0.0000
     3 C29         18.7090    55.5040    15.9260 C.3          1 NVC201   0.0000
     4 C40         17.9010    55.0910    17.1600 C.3          1 NVC201   0.0000
     5 C43         18.5500    55.5560    18.4720 C.3          1 NVC201   0.0000
     6 C46         17.6920    55.0610    19.6320 C.3          1 NVC201   0.0000
     7 C49         18.3390    55.3030    20.9790 C.3          1 NVC201   0.0000
     8 C31         18.0690    54.9230    14.6590 C.3          1 NVC201   0.0000
     9 N34         16.7630    55.5170    14.3950 N.am         1 NVC201   0.0000
    10 O35         16.7570    56.8320    13.9170 O.3          1 NVC201  -1.0000
    11 C37         15.7420    54.8280    14.6060 C.2          1 NVC201   0.0000
    12 O39         14.7220    55.3890    14.5930 O.2          1 NVC201   0.0000
    13 N17         21.1450    55.8800    15.8980 N.am         1 NVC201   0.0000
    14 C15         22.5330    55.4080    15.8590 C.3          1 NVC201   0.0000
    15 C24         23.3730    56.6550    15.6210 C.3          1 NVC201   0.0000
    16 C21         22.5160    57.7680    16.2090 C.3          1 NVC201   0.0000
    17 C18         21.0800    57.3510    15.8880 C.3          1 NVC201   0.0000
    18 C3          22.8960    54.8620    17.1790 C.2          1 NVC201   0.0000
    19 O1          23.7080    53.7710    17.1520 O.2          1 NVC201   0.0000
    20 C6          23.8920    53.4720    18.5080 C.ar         1 NVC201   0.0000
    21 C5          23.2000    54.3640    19.3050 C.ar         1 NVC201   0.0000
    22 N4          22.5690    55.2210    18.4460 N.2          1 NVC201   0.0000
    23 C7          24.6560    52.4270    19.0070 C.ar         1 NVC201   0.0000
    24 C9          24.6980    52.3110    20.3950 C.ar         1 NVC201   0.0000
    25 C11         24.0040    53.2050    21.2100 C.ar         1 NVC201   0.0000
    26 C13         23.2340    54.2420    20.6890 C.ar         1 NVC201   0.0000
    27 H1          18.7174    56.5018    15.8598 H            1 NVC201   0.0000
    28 H2          17.8263    54.0939    17.1752 H            1 NVC201   0.0000
    29 H3          16.9876    55.4928    17.0942 H            1 NVC201   0.0000
    30 H4          18.5991    56.5546    18.4897 H            1 NVC201   0.0000
    31 H5          19.4718    55.1756    18.5467 H            1 NVC201   0.0000
    32 H6          17.5399    54.0788    19.5216 H            1 NVC201   0.0000
    33 H7          16.8140    55.5391    19.6078 H            1 NVC201   0.0000
    34 H8          17.7392    54.9621    21.7029 H            1 NVC201   0.0000
    35 H9          19.2155    54.8232    21.0188 H            1 NVC201   0.0000
    36 H10         18.4897    56.2835    21.1051 H            1 NVC201   0.0000
    37 H11         17.9589    53.9358    14.7746 H            1 NVC201   0.0000
    38 H12         18.6703    55.1024    13.8804 H            1 NVC201   0.0000
    39 H13         15.7983    53.8444    14.7774 H            1 NVC201   0.0000
    40 H14         22.6688    54.7324    15.1344 H            1 NVC201   0.0000
    41 H15         23.5298    56.8009    14.6442 H            1 NVC201   0.0000
    42 H16         24.2519    56.5911    16.0938 H            1 NVC201   0.0000
    43 H17         22.7337    58.6456    15.7819 H            1 NVC201   0.0000
    44 H18         22.6525    57.8353    17.1973 H            1 NVC201   0.0000
    45 H19         20.4453    57.6864    16.5842 H            1 NVC201   0.0000
    46 H20         20.8002    57.6912    14.9902 H            1 NVC201   0.0000
    47 H21         25.1468    51.7953    18.4070 H            1 NVC201   0.0000
    48 H22         25.2331    51.5766    20.8125 H            1 NVC201   0.0000
    49 H23         24.0612    53.0977    22.2026 H            1 NVC201   0.0000
    50 H24         22.7295    54.8690    21.2826 H            1 NVC201   0.0000
@<TRIPOS>BOND
     1    1    2       2
     2    2    3       1
     3    2   13      am
     4    3    4       1
     5    3    8       1
     6    4    5       1
     7    5    6       1
     8    6    7       1
     9    8    9       1
    10    9   10       1
    11    9   11      am
    12   11   12       2
    13   13   14       1
    14   13   17       1
    15   14   15       1
    16   14   18       1
    17   15   16       1
    18   16   17       1
    19   18   19       1
    20   18   22       2
    21   19   20       1
    22   20   21      ar
    23   20   23      ar
    24   21   22       1
    25   21   26      ar
    26   23   24      ar
    27   24   25      ar
    28   25   26      ar
    29    3   27       1
    30    4   28       1
    31    4   29       1
    32    5   30       1
    33    5   31       1
    34    6   32       1
    35    6   33       1
    36    7   34       1
    37    7   35       1
    38    7   36       1
    39    8   37       1
    40    8   38       1
    41   26   50       1
    42   11   39       1
    43   14   40       1
    44   15   41       1
    45   15   42       1
    46   16   43       1
    47   16   44       1
    48   17   45       1
    49   17   46       1
    50   23   47       1
    51   24   48       1
    52   25   49       1
@<TRIPOS>SUBSTRUCTURE
     1 NVC201      1 GROUP             4 A     NVC     0 **** NVC A 201
