@<TRIPOS>MOLECULE
4ihi_NAD_1_ligand
   70    74     1     0     0
SMALL
NO_CHARGES


@<TRIPOS>ATOM
     1 PA         117.2060    26.9820   173.9170 P.3          1 NAD601   0.0000
     2 O1A        117.2590    26.5610   175.3580 O.co2        1 NAD601   0.0000
     3 O2A        118.0410    26.3280   172.9100 O.co2        1 NAD601  -1.0000
     4 O5B        117.6540    28.5250   173.8160 O.3          1 NAD601   0.0000
     5 C5B        116.9930    29.4880   174.6520 C.3          1 NAD601   0.0000
     6 C4B        117.8620    30.7270   174.7690 C.3          1 NAD601   0.0000
     7 O4B        118.9640    30.4650   175.6450 O.3          1 NAD601   0.0000
     8 C3B        118.4750    31.1640   173.4040 C.3          1 NAD601   0.0000
     9 O3B        118.4780    32.5950   173.2490 O.3          1 NAD601   0.0000
    10 C2B        119.8720    30.6310   173.4590 C.3          1 NAD601   0.0000
    11 O2B        120.6930    31.3220   172.5100 O.3          1 NAD601   0.0000
    12 C1B        120.1280    30.9230   174.9160 C.3          1 NAD601   0.0000
    13 N9A        121.1820    30.2240   175.6180 N.pl3        1 NAD601   0.0000
    14 C8A        121.4590    28.8810   175.5500 C.2          1 NAD601   0.0000
    15 N7A        122.4560    28.6050   176.3970 N.2          1 NAD601   0.0000
    16 C5A        122.8480    29.7590   176.9970 C.ar         1 NAD601   0.0000
    17 C6A        123.8240    30.1750   177.9900 C.ar         1 NAD601   0.0000
    18 N6A        124.6480    29.2480   178.5130 N.pl3        1 NAD601   0.0000
    19 N1A        123.8900    31.4580   178.4080 N.ar         1 NAD601   0.0000
    20 C2A        123.0610    32.3670   177.8690 C.ar         1 NAD601   0.0000
    21 N3A        122.1450    32.0550   176.9310 N.ar         1 NAD601   0.0000
    22 C4A        121.9870    30.8210   176.4880 C.ar         1 NAD601   0.0000
    23 O3         115.6100    27.0420   173.5430 O.3          1 NAD601   0.0000
    24 PN         115.0590    27.4910   172.1040 P.3          1 NAD601   0.0000
    25 O1N        115.5820    26.4360   171.1910 O.co2        1 NAD601   0.0000
    26 O2N        115.3220    28.9500   171.7190 O.co2        1 NAD601  -1.0000
    27 O5D        113.4790    27.4150   172.0480 O.3          1 NAD601   0.0000
    28 C5D        112.4520    26.5200   172.4060 C.3          1 NAD601   0.0000
    29 C4D        112.6310    25.5390   173.5140 C.3          1 NAD601   0.0000
    30 O4D        112.0890    26.2950   174.5990 O.3          1 NAD601   0.0000
    31 C3D        111.7610    24.3170   173.3610 C.3          1 NAD601   0.0000
    32 O3D        112.2360    23.2450   174.2060 O.3          1 NAD601   0.0000
    33 C2D        110.4340    24.9020   173.8420 C.3          1 NAD601   0.0000
    34 O2D        109.5100    23.9680   174.3980 O.3          1 NAD601   0.0000
    35 C1D        110.8070    25.8950   174.9430 C.3          1 NAD601   0.0000
    36 N1N        109.8160    26.9770   175.0380 N.ar         1 NAD601   1.0000
    37 C2N        108.9670    26.8670   176.0780 C.ar         1 NAD601   0.0000
    38 C3N        107.9590    27.7830   176.2460 C.ar         1 NAD601   0.0000
    39 C7N        107.0250    27.6850   177.4120 C.2          1 NAD601   0.0000
    40 O7N        106.1870    28.5710   177.5400 O.2          1 NAD601   0.0000
    41 N7N        107.1600    26.6720   178.2670 N.am         1 NAD601   0.0000
    42 C4N        107.8240    28.8300   175.3100 C.ar         1 NAD601   0.0000
    43 C5N        108.7090    28.9360   174.2490 C.ar         1 NAD601   0.0000
    44 C6N        109.7120    27.9850   174.1330 C.ar         1 NAD601   0.0000
    45 H5B1       116.8445    29.0966   175.5602 H            1 NAD601   0.0000
    46 H5B2       116.1124    29.7341   174.2470 H            1 NAD601   0.0000
    47 H4B        117.3166    31.4782   175.1410 H            1 NAD601   0.0000
    48 H3B        117.9743    30.7380   172.6505 H            1 NAD601   0.0000
    49 H5         117.5394    32.9371   173.2940 H            1 NAD601   0.0000
    50 H2B        119.8831    29.6459   173.2871 H            1 NAD601   0.0000
    51 H7         121.6250    30.9620   172.5510 H            1 NAD601   0.0000
    52 H1B        120.2369    31.9086   175.0452 H            1 NAD601   0.0000
    53 H8A        120.9922    28.2187   174.9639 H            1 NAD601   0.0000
    54 H6A1       125.3272    29.5121   179.1978 H            1 NAD601   0.0000
    55 H6A2       124.5809    28.2952   178.2168 H            1 NAD601   0.0000
    56 H2A        123.1263    33.3162   178.1770 H            1 NAD601   0.0000
    57 H5D1       112.2433    25.9863   171.5865 H            1 NAD601   0.0000
    58 H5D2       111.6603    27.0804   172.6494 H            1 NAD601   0.0000
    59 H4D        113.5919    25.3036   173.6595 H            1 NAD601   0.0000
    60 H3D        111.7053    24.0284   172.4052 H            1 NAD601   0.0000
    61 H17        113.0434    23.5510   174.7105 H            1 NAD601   0.0000
    62 H2D        109.9960    25.3924   173.0885 H            1 NAD601   0.0000
    63 H19        108.5759    24.2843   174.2324 H            1 NAD601   0.0000
    64 H1D        110.8425    25.4108   175.8172 H            1 NAD601   0.0000
    65 H2N        109.0715    26.1157   176.7296 H            1 NAD601   0.0000
    66 H7N1       106.5435    26.5934   179.0504 H            1 NAD601   0.0000
    67 H7N2       107.8778    25.9903   178.1252 H            1 NAD601   0.0000
    68 H4N        107.0870    29.4980   175.4126 H            1 NAD601   0.0000
    69 H5N        108.6267    29.6786   173.5844 H            1 NAD601   0.0000
    70 H6N        110.3640    28.0418   173.3769 H            1 NAD601   0.0000
@<TRIPOS>BOND
     1    1    2      ar
     2    1    3      ar
     3    1    4       1
     4    1   23       1
     5    4    5       1
     6    5    6       1
     7    6    7       1
     8    6    8       1
     9    7   12       1
    10    8    9       1
    11    8   10       1
    12   10   11       1
    13   10   12       1
    14   12   13       1
    15   13   14       1
    16   13   22       1
    17   14   15       2
    18   15   16       1
    19   16   17      ar
    20   16   22      ar
    21   17   18       1
    22   17   19      ar
    23   19   20      ar
    24   20   21      ar
    25   21   22      ar
    26   23   24       1
    27   24   25      ar
    28   24   26      ar
    29   24   27       1
    30   27   28       1
    31   28   29       1
    32   29   30       1
    33   29   31       1
    34   30   35       1
    35   31   32       1
    36   31   33       1
    37   33   34       1
    38   33   35       1
    39   35   36       1
    40   36   37      ar
    41   36   44      ar
    42   37   38      ar
    43   38   39       1
    44   38   42      ar
    45   39   40       2
    46   39   41      am
    47   42   43      ar
    48   43   44      ar
    49   44   70       1
    50    5   45       1
    51    5   46       1
    52    6   47       1
    53    8   48       1
    54    9   49       1
    55   10   50       1
    56   11   51       1
    57   12   52       1
    58   14   53       1
    59   18   54       1
    60   18   55       1
    61   20   56       1
    62   43   69       1
    63   28   57       1
    64   28   58       1
    65   29   59       1
    66   31   60       1
    67   32   61       1
    68   33   62       1
    69   34   63       1
    70   35   64       1
    71   37   65       1
    72   41   66       1
    73   41   67       1
    74   42   68       1
@<TRIPOS>SUBSTRUCTURE
     1 NAD601      1 GROUP             4 A     NAD     0 **** NAD A 601
