@<TRIPOS>MOLECULE
2ha8_SAH_1_ligand
   46    48     1     0     0
SMALL
NO_CHARGES


@<TRIPOS>ATOM
     1 N           38.3370    43.2950    20.5620 N.4          1 SAH401   1.0000
     2 CA          37.5980    43.9100    19.4160 C.3          1 SAH401   0.0000
     3 CB          37.1440    45.3130    19.7940 C.3          1 SAH401   0.0000
     4 CG          35.9980    45.3070    20.7840 C.3          1 SAH401   0.0000
     5 SD          34.6860    44.1500    20.3220 S.3          1 SAH401   0.0000
     6 C           38.4470    43.9570    18.1490 C.2          1 SAH401   0.0000
     7 O           39.6380    43.6420    18.1950 O.co2        1 SAH401   0.0000
     8 OXT         37.9690    44.3140    17.0630 O.co2        1 SAH401  -1.0000
     9 C5'         33.6510    44.9180    21.5930 C.3          1 SAH401   0.0000
    10 C4'         33.3310    44.0240    22.7810 C.3          1 SAH401   0.0000
    11 O4'         32.4480    43.0010    22.3920 O.3          1 SAH401   0.0000
    12 C3'         34.5150    43.3180    23.4190 C.3          1 SAH401   0.0000
    13 O3'         35.2810    44.1290    24.2780 O.3          1 SAH401   0.0000
    14 C2'         33.8390    42.1840    24.1530 C.3          1 SAH401   0.0000
    15 O2'         33.2440    42.6240    25.3760 O.3          1 SAH401   0.0000
    16 C1'         32.7430    41.8400    23.1550 C.3          1 SAH401   0.0000
    17 N9          33.0460    40.7310    22.2280 N.pl3        1 SAH401   0.0000
    18 C8          33.0080    40.7500    20.8330 C.2          1 SAH401   0.0000
    19 N7          33.2650    39.5010    20.3950 N.2          1 SAH401   0.0000
    20 C5          33.4620    38.6830    21.4600 C.ar         1 SAH401   0.0000
    21 C6          33.7560    37.3330    21.6180 C.ar         1 SAH401   0.0000
    22 N6          33.9250    36.5000    20.5830 N.pl3        1 SAH401   0.0000
    23 N1          33.8690    36.8180    22.8970 N.ar         1 SAH401   0.0000
    24 C2          33.7030    37.6050    24.0130 C.ar         1 SAH401   0.0000
    25 N3          33.4340    38.9380    23.8730 N.ar         1 SAH401   0.0000
    26 C4          33.3080    39.4580    22.6120 C.ar         1 SAH401   0.0000
    27 H1          37.8673    42.4614    20.8527 H            1 SAH401   0.0000
    28 H2          39.2684    43.0702    20.2758 H            1 SAH401   0.0000
    29 HA          36.7865    43.3557    19.2309 H            1 SAH401   0.0000
    30 HB1         36.8488    45.7883    18.9652 H            1 SAH401   0.0000
    31 HB2         37.9163    45.8008    20.2009 H            1 SAH401   0.0000
    32 HG1         35.6109    46.2278    20.8315 H            1 SAH401   0.0000
    33 HG2         36.3522    45.0475    21.6824 H            1 SAH401   0.0000
    34 H5'1        32.7880    45.1914    21.1681 H            1 SAH401   0.0000
    35 H5'2        34.1267    45.7291    21.9333 H            1 SAH401   0.0000
    36 H4'         32.8811    44.5791    23.4806 H            1 SAH401   0.0000
    37 H3'         35.1042    42.9448    22.7023 H            1 SAH401   0.0000
    38 H12         36.2318    43.8192    24.2690 H            1 SAH401   0.0000
    39 H2'         34.4610    41.4149    24.2996 H            1 SAH401   0.0000
    40 H14         33.6527    42.1287    26.1426 H            1 SAH401   0.0000
    41 H1'         31.9226    41.5942    23.6713 H            1 SAH401   0.0000
    42 H16         32.8230    41.5484    20.2600 H            1 SAH401   0.0000
    43 H17         34.1355    35.5361    20.7461 H            1 SAH401   0.0000
    44 H18         33.8407    36.8419    19.6471 H            1 SAH401   0.0000
    45 H19         33.7790    37.2026    24.9253 H            1 SAH401   0.0000
    46 H20         38.3693    43.9422    21.3236 H            1 SAH401   0.0000
@<TRIPOS>BOND
     1    1    2       1
     2    2    3       1
     3    2    6       1
     4    3    4       1
     5    4    5       1
     6    5    9       1
     7    6    7      ar
     8    6    8      ar
     9    9   10       1
    10   10   11       1
    11   10   12       1
    12   11   16       1
    13   12   13       1
    14   12   14       1
    15   14   15       1
    16   14   16       1
    17   16   17       1
    18   17   18       1
    19   17   26       1
    20   18   19       2
    21   19   20       1
    22   20   21      ar
    23   20   26      ar
    24   21   22       1
    25   21   23      ar
    26   23   24      ar
    27   24   25      ar
    28   25   26      ar
    29    1   27       1
    30    1   28       1
    31    2   29       1
    32    3   30       1
    33    3   31       1
    34    4   32       1
    35    4   33       1
    36    1   46       1
    37    9   34       1
    38    9   35       1
    39   10   36       1
    40   12   37       1
    41   13   38       1
    42   14   39       1
    43   15   40       1
    44   16   41       1
    45   18   42       1
    46   22   43       1
    47   22   44       1
    48   24   45       1
@<TRIPOS>SUBSTRUCTURE
     1 SAH401      1 GROUP             4 A     SAH     0 **** SAH A 401
