@<TRIPOS>MOLECULE
1m8j_NAD_1_ligand
   71    75     1     0     0
SMALL
NO_CHARGES


@<TRIPOS>ATOM
     1 PA          28.4340    20.1690    43.6690 P.3          1 NAD1339   0.0000
     2 O1A         28.2860    18.8020    43.0980 O.co2        1 NAD1339   0.0000
     3 O2A         29.1620    20.2670    44.9610 O.co2        1 NAD1339  -1.0000
     4 O5B         26.9950    20.8680    43.8380 O.3          1 NAD1339   0.0000
     5 C5B         26.0270    20.7290    42.7700 C.3          1 NAD1339   0.0000
     6 C4B         24.6440    21.1670    43.2280 C.3          1 NAD1339   0.0000
     7 O4B         24.1890    20.1920    44.1900 O.3          1 NAD1339   0.0000
     8 C3B         24.5770    22.5320    43.9200 C.3          1 NAD1339   0.0000
     9 O3B         23.5480    23.3320    43.3030 O.3          1 NAD1339   0.0000
    10 C2B         24.3520    22.1380    45.3840 C.3          1 NAD1339   0.0000
    11 O2B         23.6290    23.1670    46.1050 O.3          1 NAD1339   0.0000
    12 C1B         23.5290    20.8690    45.2140 C.3          1 NAD1339   0.0000
    13 N9A         23.5070    19.9730    46.3640 N.pl3        1 NAD1339   0.0000
    14 C8A         24.5210    19.1850    46.8200 C.2          1 NAD1339   0.0000
    15 N7A         24.2110    18.4720    47.8980 N.2          1 NAD1339   1.0000
    16 C5A         22.9030    18.8250    48.1570 C.ar         1 NAD1339   0.0000
    17 C6A         22.0130    18.4100    49.1690 C.ar         1 NAD1339   0.0000
    18 N6A         22.2800    17.5460    50.1270 N.pl3        1 NAD1339   0.0000
    19 N1A         20.7470    18.9510    49.1670 N.ar         1 NAD1339   0.0000
    20 C2A         20.4410    19.8610    48.1760 C.ar         1 NAD1339   0.0000
    21 N3A         21.1790    20.3220    47.1870 N.ar         1 NAD1339   0.0000
    22 C4A         22.4390    19.7520    47.2270 C.ar         1 NAD1339   0.0000
    23 O3          29.1280    21.0660    42.6140 O.3          1 NAD1339   0.0000
    24 PN          29.4640    22.6770    42.6240 P.3          1 NAD1339   0.0000
    25 O1N         28.2670    23.3630    43.1280 O.co2        1 NAD1339   0.0000
    26 O2N         30.6790    22.9130    43.4460 O.co2        1 NAD1339  -1.0000
    27 O5D         29.6240    22.8730    41.0670 O.3          1 NAD1339   0.0000
    28 C5D         30.9060    23.3280    40.7380 C.3          1 NAD1339   0.0000
    29 C4D         31.1380    23.3390    39.2740 C.3          1 NAD1339   0.0000
    30 O4D         30.9340    24.6960    38.7170 O.3          1 NAD1339   0.0000
    31 C3D         32.5640    22.9820    38.9980 C.3          1 NAD1339   0.0000
    32 O3D         32.6870    22.1790    37.8300 O.3          1 NAD1339   0.0000
    33 C2D         33.1520    24.3520    38.8520 C.3          1 NAD1339   0.0000
    34 O2D         34.4550    24.2630    38.2830 O.3          1 NAD1339   0.0000
    35 C1D         32.0910    24.9760    37.9710 C.3          1 NAD1339   0.0000
    36 N1N         32.3270    26.4150    37.7610 N.ar         1 NAD1339   1.0000
    37 C2N         33.2780    26.8210    36.8270 C.ar         1 NAD1339   0.0000
    38 C3N         33.6790    28.2360    36.6750 C.ar         1 NAD1339   0.0000
    39 C7N         34.7790    28.5050    35.7300 C.2          1 NAD1339   0.0000
    40 O7N         35.2595    27.5328    35.1282 O.2          1 NAD1339   0.0000
    41 N7N         35.2659    29.7386    35.5035 N.am         1 NAD1339   0.0000
    42 C4N         32.8940    29.2980    37.4170 C.ar         1 NAD1339   0.0000
    43 C5N         31.8520    28.7090    38.3220 C.ar         1 NAD1339   0.0000
    44 C6N         31.6130    27.4160    38.4880 C.ar         1 NAD1339   0.0000
    45 H5B1        25.9892    19.7711    42.4854 H            1 NAD1339   0.0000
    46 H5B2        26.3100    21.2957    41.9962 H            1 NAD1339   0.0000
    47 H4B         24.0240    21.1669    42.4434 H            1 NAD1339   0.0000
    48 H3B         25.4587    22.9953    43.8306 H            1 NAD1339   0.0000
    49 H5          23.9418    23.8578    42.5490 H            1 NAD1339   0.0000
    50 H2B         25.2224    21.9370    45.8335 H            1 NAD1339   0.0000
    51 H7          23.4989    22.8801    47.0541 H            1 NAD1339   0.0000
    52 H1B         22.5962    21.0961    44.9340 H            1 NAD1339   0.0000
    53 H8A         25.4192    19.1466    46.3821 H            1 NAD1339   0.0000
    54 H6A1        21.5790    17.3151    50.8017 H            1 NAD1339   0.0000
    55 H6A2        23.1837    17.1211    50.1795 H            1 NAD1339   0.0000
    56 H2A         19.5119    20.2288    48.2147 H            1 NAD1339   0.0000
    57 H5D1        31.5808    22.7270    41.1664 H            1 NAD1339   0.0000
    58 H5D2        31.0175    24.2578    41.0887 H            1 NAD1339   0.0000
    59 H4D         30.5272    22.6874    38.8242 H            1 NAD1339   0.0000
    60 H3D         32.9642    22.5138    39.7858 H            1 NAD1339   0.0000
    61 H17         33.6505    21.9598    37.6761 H            1 NAD1339   0.0000
    62 H2D         33.1876    24.8141    39.7381 H            1 NAD1339   0.0000
    63 H19         34.3968    23.8317    37.3827 H            1 NAD1339   0.0000
    64 H1D         32.0543    24.5026    37.0909 H            1 NAD1339   0.0000
    65 H2N         33.7035    26.1323    36.2399 H            1 NAD1339   0.0000
    66 H7N1        36.0123    29.8695    34.8510 H            1 NAD1339   0.0000
    67 H7N2        34.8814    30.5246    35.9876 H            1 NAD1339   0.0000
    68 H4N         33.0522    30.2801    37.3153 H            1 NAD1339   0.0000
    69 H5N         31.2886    29.3480    38.8457 H            1 NAD1339   0.0000
    70 H6N         30.9116    27.1326    39.1420 H            1 NAD1339   0.0000
    71 H7A         24.7895    17.8309    48.4023 H            1 NAD1339   0.0000
@<TRIPOS>BOND
     1    1    2      ar
     2    1    3      ar
     3    1    4       1
     4    1   23       1
     5    4    5       1
     6    5    6       1
     7    6    7       1
     8    6    8       1
     9    7   12       1
    10    8    9       1
    11    8   10       1
    12   10   11       1
    13   10   12       1
    14   12   13       1
    15   13   14       1
    16   13   22       1
    17   14   15       2
    18   15   16       1
    19   16   17      ar
    20   16   22      ar
    21   17   18       1
    22   17   19      ar
    23   19   20      ar
    24   20   21      ar
    25   21   22      ar
    26   23   24       1
    27   24   25      ar
    28   24   26      ar
    29   24   27       1
    30   27   28       1
    31   28   29       1
    32   29   30       1
    33   29   31       1
    34   30   35       1
    35   31   32       1
    36   31   33       1
    37   33   34       1
    38   33   35       1
    39   35   36       1
    40   36   37      ar
    41   36   44      ar
    42   37   38      ar
    43   38   39       1
    44   38   42      ar
    45   39   40       2
    46   39   41      am
    47   42   43      ar
    48   43   44      ar
    49   44   70       1
    50    5   45       1
    51    5   46       1
    52    6   47       1
    53    8   48       1
    54    9   49       1
    55   10   50       1
    56   11   51       1
    57   12   52       1
    58   14   53       1
    59   18   54       1
    60   18   55       1
    61   20   56       1
    62   43   69       1
    63   28   57       1
    64   28   58       1
    65   29   59       1
    66   31   60       1
    67   32   61       1
    68   33   62       1
    69   34   63       1
    70   35   64       1
    71   37   65       1
    72   41   66       1
    73   41   67       1
    74   42   68       1
    75   15   71       1
@<TRIPOS>SUBSTRUCTURE
     1 NAD1339     1 GROUP             4 A     NAD     0 **** NAD A1339
