@<TRIPOS>MOLECULE
2vut_NAD_2_ligand
   70    74     1     0     0
SMALL
NO_CHARGES


@<TRIPOS>ATOM
     1 PA           6.7510  -107.1880   173.3140 P.3          1 NAD1353   0.0000
     2 O1A          7.2400  -105.8420   173.7430 O.co2        1 NAD1353   0.0000
     3 O2A          5.3090  -107.4360   173.6740 O.co2        1 NAD1353  -1.0000
     4 O5B          7.6860  -108.3490   173.9810 O.3          1 NAD1353   0.0000
     5 C5B          8.7790  -108.9490   173.2340 C.3          1 NAD1353   0.0000
     6 C4B          8.7390  -110.4140   173.5350 C.3          1 NAD1353   0.0000
     7 O4B          9.8350  -111.0080   172.7880 O.3          1 NAD1353   0.0000
     8 C3B          9.0050  -110.7950   174.9990 C.3          1 NAD1353   0.0000
     9 O3B          8.2450  -111.9860   175.3710 O.3          1 NAD1353   0.0000
    10 C2B         10.5230  -110.9770   175.0320 C.3          1 NAD1353   0.0000
    11 O2B         10.9860  -111.5970   176.2400 O.3          1 NAD1353   0.0000
    12 C1B         10.7760  -111.7440   173.6860 C.3          1 NAD1353   0.0000
    13 N9A         12.1080  -111.4940   173.0690 N.pl3        1 NAD1353   0.0000
    14 C8A         12.3750  -110.7570   171.9350 C.2          1 NAD1353   0.0000
    15 N7A         13.7910  -110.8160   171.7600 N.2          1 NAD1353   0.0000
    16 C5A         14.2880  -111.5650   172.7730 C.ar         1 NAD1353   0.0000
    17 C6A         15.7250  -111.9570   173.0890 C.ar         1 NAD1353   0.0000
    18 N6A         16.8440  -111.5400   172.2730 N.pl3        1 NAD1353   0.0000
    19 N1A         15.8680  -112.8250   174.3410 N.ar         1 NAD1353   0.0000
    20 C2A         14.6720  -113.1710   175.0670 C.ar         1 NAD1353   0.0000
    21 N3A         13.5040  -112.7560   174.6690 N.ar         1 NAD1353   0.0000
    22 C4A         13.3050  -111.9680   173.5450 C.ar         1 NAD1353   0.0000
    23 O3           6.6720  -107.4390   171.7410 O.3          1 NAD1353   0.0000
    24 PN           5.9610  -106.7140   170.5550 P.3          1 NAD1353   0.0000
    25 O1N          5.0320  -107.6240   169.8320 O.co2        1 NAD1353   0.0000
    26 O2N          5.1900  -105.5380   171.0520 O.co2        1 NAD1353  -1.0000
    27 O5D          7.0880  -106.2390   169.5820 O.3          1 NAD1353   0.0000
    28 C5D          8.1170  -105.3630   169.9760 C.3          1 NAD1353   0.0000
    29 C4D          8.1930  -104.2010   168.9460 C.3          1 NAD1353   0.0000
    30 O4D          6.9410  -103.4780   168.9180 O.3          1 NAD1353   0.0000
    31 C3D          9.2770  -103.1610   169.2700 C.3          1 NAD1353   0.0000
    32 O3D         10.2670  -103.1910   168.2240 O.3          1 NAD1353   0.0000
    33 C2D          8.4930  -101.8360   169.3980 C.3          1 NAD1353   0.0000
    34 O2D          9.2590  -100.6940   168.9850 O.3          1 NAD1353   0.0000
    35 C1D          7.2140  -102.1060   168.5700 C.3          1 NAD1353   0.0000
    36 N1N          6.0700  -101.2430   168.9630 N.ar         1 NAD1353   1.0000
    37 C2N          5.6350  -101.1900   170.3810 C.ar         1 NAD1353   0.0000
    38 C3N          4.5730  -100.3740   170.6750 C.ar         1 NAD1353   0.0000
    39 C7N          4.0600  -100.2400   172.0570 C.2          1 NAD1353   0.0000
    40 O7N          3.1200   -99.5070   172.2800 O.2          1 NAD1353   0.0000
    41 N7N          4.6670  -100.9680   173.1450 N.am         1 NAD1353   0.0000
    42 C4N          3.9280   -99.6040   169.5620 C.ar         1 NAD1353   0.0000
    43 C5N          4.3850   -99.7040   168.2720 C.ar         1 NAD1353   0.0000
    44 C6N          5.5350  -100.5860   167.9660 C.ar         1 NAD1353   0.0000
    45 H5B1         9.6526  -108.5594   173.5256 H            1 NAD1353   0.0000
    46 H5B2         8.6551  -108.7934   172.2540 H            1 NAD1353   0.0000
    47 H4B          7.8684  -110.8022   173.2328 H            1 NAD1353   0.0000
    48 H3B          8.7467  -110.0343   175.5945 H            1 NAD1353   0.0000
    49 H5           7.2678  -111.8070   175.2568 H            1 NAD1353   0.0000
    50 H2B         10.9474  -110.0743   174.9617 H            1 NAD1353   0.0000
    51 H7          11.8156  -112.1215   176.0487 H            1 NAD1353   0.0000
    52 H1B         10.5604  -112.7182   173.7527 H            1 NAD1353   0.0000
    53 H8A         11.7143  -110.2801   171.3553 H            1 NAD1353   0.0000
    54 H6A1        17.7725  -111.8202   172.5168 H            1 NAD1353   0.0000
    55 H6A2        16.6892  -110.9715   171.4650 H            1 NAD1353   0.0000
    56 H2A         14.7403  -113.7378   175.8880 H            1 NAD1353   0.0000
    57 H5D1         8.9883  -105.8532   169.9971 H            1 NAD1353   0.0000
    58 H5D2         7.9188  -104.9962   170.8850 H            1 NAD1353   0.0000
    59 H4D          8.3689  -104.5820   168.0383 H            1 NAD1353   0.0000
    60 H3D          9.7059  -103.3839   170.1454 H            1 NAD1353   0.0000
    61 H17         10.3188  -104.1130   167.8404 H            1 NAD1353   0.0000
    62 H2D          8.2313  -101.7133   170.3553 H            1 NAD1353   0.0000
    63 H19          8.7947  -100.2381   168.2257 H            1 NAD1353   0.0000
    64 H1D          7.4017  -102.0202   167.5915 H            1 NAD1353   0.0000
    65 H2N          6.0953  -101.7249   171.0895 H            1 NAD1353   0.0000
    66 H7N1         4.3104  -100.8682   174.0739 H            1 NAD1353   0.0000
    67 H7N2         5.4443  -101.5723   172.9701 H            1 NAD1353   0.0000
    68 H4N          3.1513   -99.0072   169.7632 H            1 NAD1353   0.0000
    69 H5N          3.9434   -99.1834   167.5413 H            1 NAD1353   0.0000
    70 H6N          5.8883  -100.6757   167.0348 H            1 NAD1353   0.0000
@<TRIPOS>BOND
     1    1    2      ar
     2    1    3      ar
     3    1    4       1
     4    1   23       1
     5    4    5       1
     6    5    6       1
     7    6    7       1
     8    6    8       1
     9    7   12       1
    10    8    9       1
    11    8   10       1
    12   10   11       1
    13   10   12       1
    14   12   13       1
    15   13   14       1
    16   13   22       1
    17   14   15       2
    18   15   16       1
    19   16   17      ar
    20   16   22      ar
    21   17   18       1
    22   17   19      ar
    23   19   20      ar
    24   20   21      ar
    25   21   22      ar
    26   23   24       1
    27   24   25      ar
    28   24   26      ar
    29   24   27       1
    30   27   28       1
    31   28   29       1
    32   29   30       1
    33   29   31       1
    34   30   35       1
    35   31   32       1
    36   31   33       1
    37   33   34       1
    38   33   35       1
    39   35   36       1
    40   36   37      ar
    41   36   44      ar
    42   37   38      ar
    43   38   39       1
    44   38   42      ar
    45   39   40       2
    46   39   41      am
    47   42   43      ar
    48   43   44      ar
    49   44   70       1
    50    5   45       1
    51    5   46       1
    52    6   47       1
    53    8   48       1
    54    9   49       1
    55   10   50       1
    56   11   51       1
    57   12   52       1
    58   14   53       1
    59   18   54       1
    60   18   55       1
    61   20   56       1
    62   43   69       1
    63   28   57       1
    64   28   58       1
    65   29   59       1
    66   31   60       1
    67   32   61       1
    68   33   62       1
    69   34   63       1
    70   35   64       1
    71   37   65       1
    72   41   66       1
    73   41   67       1
    74   42   68       1
@<TRIPOS>SUBSTRUCTURE
     1 NAD1353     1 GROUP             4 B     NAD     0 **** NAD B1353
