@<TRIPOS>MOLECULE
4ge5_A89_1_ligand
   75    77     1     0     0
SMALL
NO_CHARGES


@<TRIPOS>ATOM
     1 C23         18.5240     1.8260    -2.3120 C.2          1 A89601   0.0000
     2 C24         19.2000     2.5500    -3.2400 C.ar         1 A89601   0.0000
     3 C25         20.0730     1.9660    -4.1360 C.ar         1 A89601   0.0000
     4 C26         20.7550     2.6920    -5.0890 C.ar         1 A89601   0.0000
     5 C27         20.5400     4.0740    -5.1330 C.ar         1 A89601   0.0000
     6 C28         19.6720     4.6710    -4.2450 C.ar         1 A89601   0.0000
     7 C29         19.0090     3.9180    -3.3090 C.ar         1 A89601   0.0000
     8 C30         21.6940     1.9540    -6.0320 C.3          1 A89601   0.0000
     9 O7          18.9150     1.7740    -1.1620 O.2          1 A89601   0.0000
    10 BR          21.3920     5.2210    -6.3840 Br           1 A89601   0.0000
    11 N1          17.3860     1.1140    -2.5830 N.am         1 A89601   0.0000
    12 C9          16.5160     0.3280    -1.6980 C.3          1 A89601   0.0000
    13 C10         16.6570    -1.1580    -2.0550 C.2          1 A89601   0.0000
    14 O4          16.7910    -2.0050    -1.2000 O.2          1 A89601   0.0000
    15 C8          15.0880     0.9430    -1.8630 C.3          1 A89601   0.0000
    16 C5          14.0480     0.2160    -1.0330 C.ar         1 A89601   0.0000
    17 C6          13.8620     0.5180     0.3020 C.ar         1 A89601   0.0000
    18 C4          13.2610    -0.7750    -1.5960 C.ar         1 A89601   0.0000
    19 C7          12.9200    -0.1560     1.0460 C.ar         1 A89601   0.0000
    20 C3          12.3270    -1.4420    -0.8510 C.ar         1 A89601   0.0000
    21 C2          12.1350    -1.1520     0.4810 C.ar         1 A89601   0.0000
    22 C1          11.1050    -1.9050     1.3020 C.3          1 A89601   0.0000
    23 F1          11.4950    -2.0160     2.6020 F            1 A89601   0.0000
    24 F2          10.9080    -3.1780     0.8360 F            1 A89601   0.0000
    25 P1           9.4400    -1.0870     1.3280 P.3          1 A89601   0.0000
    26 O2           9.4850     0.2290     2.0250 O.co2        1 A89601   0.0000
    27 O1           8.9500    -0.8800    -0.2030 O.co2        1 A89601  -1.0000
    28 O3           8.4440    -2.0740     2.1090 O.co2        1 A89601  -1.0000
    29 N2          16.6120    -1.4370    -3.4020 N.am         1 A89601   0.0000
    30 N4          15.0720    -2.1660    -8.3280 N.am         1 A89601   0.0000
    31 C11         16.0140    -2.6460    -4.0090 C.3          1 A89601   0.0000
    32 C12         16.9830    -3.8400    -3.9330 C.2          1 A89601   0.0000
    33 C13         15.6980    -2.2860    -5.4810 C.3          1 A89601   0.0000
    34 C14         14.3730    -2.8310    -6.0450 C.3          1 A89601   0.0000
    35 C15         14.5280    -3.2730    -7.5220 C.3          1 A89601   0.0000
    36 C16         15.9370    -2.2060    -9.4000 C.2          1 A89601   0.0000
    37 C17         15.8240    -1.5740   -10.6150 C.ar         1 A89601   0.0000
    38 C18         16.0090    -0.1960   -10.6740 C.ar         1 A89601   0.0000
    39 C19         15.9090     0.5110   -11.8560 C.ar         1 A89601   0.0000
    40 C20         15.6200    -0.1470   -13.0290 C.ar         1 A89601   0.0000
    41 C21         15.4330    -1.5130   -12.9960 C.ar         1 A89601   0.0000
    42 C22         15.5360    -2.2070   -11.8090 C.ar         1 A89601   0.0000
    43 O5          18.1159    -3.8234    -4.3522 O.2          1 A89601   0.0000
    44 O6          16.9170    -2.9000    -9.2040 O.2          1 A89601   0.0000
    45 I           14.9800    -2.5760   -14.8200 I            1 A89601   0.0000
    46 N3          16.4920    -4.9626    -3.3372 N.am         1 A89601   0.0000
    47 H1          20.2163     0.9773    -4.0920 H            1 A89601   0.0000
    48 H2          19.5243     5.6593    -4.2829 H            1 A89601   0.0000
    49 H3          18.3813     4.3629    -2.6702 H            1 A89601   0.0000
    50 H4          22.1140     2.6067    -6.6625 H            1 A89601   0.0000
    51 H5          22.4077     1.4967    -5.5014 H            1 A89601   0.0000
    52 H6          21.1774     1.2736    -6.5518 H            1 A89601   0.0000
    53 H7          17.1002     1.1321    -3.5411 H            1 A89601   0.0000
    54 H8          16.8154     0.4608    -0.7531 H            1 A89601   0.0000
    55 H9          14.8247     0.8903    -2.8263 H            1 A89601   0.0000
    56 H10         15.1155     1.9008    -1.5768 H            1 A89601   0.0000
    57 H11         14.4157     1.2315     0.7312 H            1 A89601   0.0000
    58 H12         13.3772    -1.0066    -2.5618 H            1 A89601   0.0000
    59 H13         12.7989     0.0761     2.0111 H            1 A89601   0.0000
    60 H14         11.7731    -2.1540    -1.2825 H            1 A89601   0.0000
    61 H15         17.0177    -0.7659    -4.0225 H            1 A89601   0.0000
    62 H16         14.7693    -1.2521    -8.0576 H            1 A89601   0.0000
    63 H17         15.1654    -2.8741    -3.5317 H            1 A89601   0.0000
    64 H18         16.4405    -2.6422    -6.0483 H            1 A89601   0.0000
    65 H19         15.6728    -1.2889    -5.5525 H            1 A89601   0.0000
    66 H20         13.6771    -2.1149    -5.9908 H            1 A89601   0.0000
    67 H21         14.0854    -3.6174    -5.4983 H            1 A89601   0.0000
    68 H22         15.1508    -4.0539    -7.5698 H            1 A89601   0.0000
    69 H23         13.6339    -3.5370    -7.8837 H            1 A89601   0.0000
    70 H24         16.2216     0.2992    -9.8316 H            1 A89601   0.0000
    71 H25         16.0467     1.5015   -11.8593 H            1 A89601   0.0000
    72 H26         15.5468     0.3561   -13.8901 H            1 A89601   0.0000
    73 H27         15.3982    -3.1975   -11.8123 H            1 A89601   0.0000
    74 H28         17.0720    -5.7714    -3.2398 H            1 A89601   0.0000
    75 H29         15.5517    -4.9778    -2.9974 H            1 A89601   0.0000
@<TRIPOS>BOND
     1    1    2       1
     2    1    9       2
     3    1   11      am
     4    2    3      ar
     5    2    7      ar
     6    3    4      ar
     7    4    5      ar
     8    4    8       1
     9    5    6      ar
    10    5   10       1
    11    6    7      ar
    12   11   12       1
    13   12   13       1
    14   12   15       1
    15   13   14       2
    16   13   29      am
    17   15   16       1
    18   16   17      ar
    19   16   18      ar
    20   17   19      ar
    21   18   20      ar
    22   19   21      ar
    23   20   21      ar
    24   21   22       1
    25   22   23       1
    26   22   24       1
    27   22   25       1
    28   25   26      ar
    29   25   27      ar
    30   25   28      ar
    31   29   31       1
    32   30   35       1
    33   30   36      am
    34   31   32       1
    35   31   33       1
    36   32   43       2
    37   32   46      am
    38   33   34       1
    39   34   35       1
    40   36   37       1
    41   36   44       2
    42   37   38      ar
    43   37   42      ar
    44   38   39      ar
    45   39   40      ar
    46   40   41      ar
    47   41   42      ar
    48   41   45       1
    49    3   47       1
    50    6   48       1
    51    7   49       1
    52    8   50       1
    53    8   51       1
    54    8   52       1
    55   11   53       1
    56   12   54       1
    57   15   55       1
    58   15   56       1
    59   17   57       1
    60   18   58       1
    61   19   59       1
    62   20   60       1
    63   46   75       1
    64   46   74       1
    65   29   61       1
    66   30   62       1
    67   31   63       1
    68   33   64       1
    69   33   65       1
    70   34   66       1
    71   34   67       1
    72   35   68       1
    73   35   69       1
    74   38   70       1
    75   39   71       1
    76   40   72       1
    77   42   73       1
@<TRIPOS>SUBSTRUCTURE
     1 A89601      1 GROUP             4 A     A89     0 **** A89 A 601
