@<TRIPOS>MOLECULE
3w6x_HZP_2_ligand
   18    18     1     0     0
SMALL
NO_CHARGES


@<TRIPOS>ATOM
     1 OXT        -41.4400     4.8040    -2.5180 O.co2        1 HZP301   0.0000
     2 N          -43.6970     5.8370    -1.8930 N.4          1 HZP301   1.0000
     3 CA         -43.0800     6.4750    -3.0710 C.3          1 HZP301   0.0000
     4 C          -41.7260     5.8620    -3.3530 C.2          1 HZP301   0.0000
     5 O          -40.8910     6.2240    -4.1800 O.co2        1 HZP301  -1.0000
     6 CB         -42.8680     7.9760    -2.7590 C.3          1 HZP301   0.0000
     7 CG         -42.6220     7.9480    -1.2350 C.3          1 HZP301   0.0000
     8 CD         -43.4870     6.7310    -0.7530 C.3          1 HZP301   0.0000
     9 OD1        -41.2150     7.8120    -1.0340 O.3          1 HZP301   0.0000
    10 H1         -43.2654     4.9521    -1.7179 H            1 HZP301   0.0000
    11 HA         -43.6754     6.3716    -3.8677 H            1 HZP301   0.0000
    12 HB1        -43.6796     8.5138    -2.9873 H            1 HZP301   0.0000
    13 HB2        -42.0769     8.3419    -3.2492 H            1 HZP301   0.0000
    14 HG         -42.9512     8.7941    -0.8158 H            1 HZP301   0.0000
    15 HD1        -43.0072     6.2426    -0.0241 H            1 HZP301   0.0000
    16 HD2        -44.3687     7.0568    -0.4117 H            1 HZP301   0.0000
    17 H8         -41.0463     7.3198    -0.1800 H            1 HZP301   0.0000
    18 H9         -44.6760     5.7054    -2.0487 H            1 HZP301   0.0000
@<TRIPOS>BOND
     1    1    4      ar
     2    2    3       1
     3    2    8       1
     4    3    4       1
     5    3    6       1
     6    4    5      ar
     7    6    7       1
     8    7    8       1
     9    7    9       1
    10    9   17       1
    11    2   10       1
    12    3   11       1
    13    6   12       1
    14    6   13       1
    15    7   14       1
    16    8   15       1
    17    8   16       1
    18    2   18       1
@<TRIPOS>SUBSTRUCTURE
     1 HZP301      1 GROUP             4 B     HZP     0 **** HZP B 301
