@<TRIPOS>MOLECULE
1v8k_ANP_1_ligand
   44    46     1     0     0
SMALL
NO_CHARGES


@<TRIPOS>ATOM
     1 PG         -39.6830    78.4190   -24.4280 P.3          1 ANP500   0.0000
     2 O1G        -38.9000    79.1230   -25.5000 O.co2        1 ANP500   0.0000
     3 O2G        -39.0290    77.1760   -23.8670 O.co2        1 ANP500  -1.0000
     4 O3G        -41.1730    78.0630   -24.9400 O.co2        1 ANP500  -1.0000
     5 PB         -40.8260    79.2680   -21.8880 P.3          1 ANP500   0.0000
     6 O1B        -40.3560    78.1480   -21.0600 O.co2        1 ANP500   0.0000
     7 O2B        -41.6340    80.4100   -21.4740 O.co2        1 ANP500  -1.0000
     8 N3B        -39.9150    79.4780   -23.2040 N.3          1 ANP500   0.0000
     9 PA         -38.9550    79.6830   -19.7080 P.3          1 ANP500   0.0000
    10 O1A        -37.5070    79.3800   -19.8260 O.co2        1 ANP500   0.0000
    11 O2A        -39.6020    79.9620   -18.4120 O.co2        1 ANP500  -1.0000
    12 O3A        -39.7240    80.1330   -21.0340 O.3          1 ANP500   0.0000
    13 O5'        -38.3090    81.1420   -19.4030 O.3          1 ANP500   0.0000
    14 C5'        -38.4670    82.3800   -20.1110 C.3          1 ANP500   0.0000
    15 C4'        -37.2480    83.2290   -19.5940 C.3          1 ANP500   0.0000
    16 O4'        -37.7000    84.3380   -18.7180 O.3          1 ANP500   0.0000
    17 C3'        -36.2040    82.5600   -18.6730 C.3          1 ANP500   0.0000
    18 O3'        -34.9280    83.1550   -18.8590 O.3          1 ANP500   0.0000
    19 C2'        -36.7980    82.7460   -17.2720 C.3          1 ANP500   0.0000
    20 O2'        -35.7720    82.6700   -16.2520 O.3          1 ANP500   0.0000
    21 C1'        -37.4510    84.1120   -17.3460 C.3          1 ANP500   0.0000
    22 N9         -38.7380    84.1820   -16.5760 N.pl3        1 ANP500   0.0000
    23 C8         -39.9320    83.6150   -16.8890 C.2          1 ANP500   0.0000
    24 N7         -40.8740    83.8770   -16.0030 N.2          1 ANP500   0.0000
    25 C5         -40.3070    84.6510   -15.0520 C.ar         1 ANP500   0.0000
    26 C6         -40.8550    85.2300   -13.8690 C.ar         1 ANP500   0.0000
    27 N6         -42.0440    85.1380   -13.4450 N.pl3        1 ANP500   0.0000
    28 N1         -39.9170    85.9650   -13.1570 N.ar         1 ANP500   0.0000
    29 C2         -38.5860    86.1240   -13.5490 C.ar         1 ANP500   0.0000
    30 N3         -38.0860    85.5880   -14.6470 N.ar         1 ANP500   0.0000
    31 C4         -38.9800    84.8570   -15.3760 C.ar         1 ANP500   0.0000
    32 H3B        -38.9982    79.6690   -22.8532 H            1 ANP500   0.0000
    33 H5'1       -39.3358    82.8188   -19.8814 H            1 ANP500   0.0000
    34 H5'2       -38.4156    82.2395   -21.0997 H            1 ANP500   0.0000
    35 H4'        -36.7736    83.6191   -20.3831 H            1 ANP500   0.0000
    36 H3'        -36.1502    81.5842   -18.8848 H            1 ANP500   0.0000
    37 H6         -34.2630    82.7126   -18.2573 H            1 ANP500   0.0000
    38 H2'        -37.4937    82.0475   -17.1044 H            1 ANP500   0.0000
    39 H8         -36.1877    82.7945   -15.3511 H            1 ANP500   0.0000
    40 H1'        -36.8172    84.8050   -17.0023 H            1 ANP500   0.0000
    41 H10        -40.0815    83.0573   -17.7055 H            1 ANP500   0.0000
    42 H11        -42.3083    85.5932   -12.5948 H            1 ANP500   0.0000
    43 H12        -42.7191    84.6101   -13.9602 H            1 ANP500   0.0000
    44 H13        -37.9819    86.6709   -12.9694 H            1 ANP500   0.0000
@<TRIPOS>BOND
     1    1    2      ar
     2    1    3      ar
     3    1    4      ar
     4    1    8       1
     5    5    6      ar
     6    5    7      ar
     7    5    8       1
     8    5   12       1
     9    9   10      ar
    10    9   11      ar
    11    9   12       1
    12    9   13       1
    13   13   14       1
    14   14   15       1
    15   15   16       1
    16   15   17       1
    17   16   21       1
    18   17   18       1
    19   17   19       1
    20   19   20       1
    21   19   21       1
    22   21   22       1
    23   22   23       1
    24   22   31       1
    25   23   24       2
    26   24   25       1
    27   25   26      ar
    28   25   31      ar
    29   26   27       1
    30   26   28      ar
    31   28   29      ar
    32   29   30      ar
    33   30   31      ar
    34   29   44       1
    35   27   43       1
    36   27   42       1
    37    8   32       1
    38   23   41       1
    39   14   33       1
    40   14   34       1
    41   15   35       1
    42   17   36       1
    43   18   37       1
    44   19   38       1
    45   20   39       1
    46   21   40       1
@<TRIPOS>SUBSTRUCTURE
     1 ANP500      1 GROUP             4 A     ANP     0 **** ANP A 500
