@<TRIPOS>MOLECULE
4qak_2AM_1_ligand
   35    37     1     0     0
SMALL
NO_CHARGES


@<TRIPOS>ATOM
     1 P           29.2850    17.6250    20.5930 P.3          1 2AM201   0.0000
     2 O1P         28.5390    16.6110    21.4300 O.co2        1 2AM201   0.0000
     3 O2P         30.3470    16.9350    19.7670 O.co2        1 2AM201  -1.0000
     4 O3P         28.3190    18.3690    19.7050 O.co2        1 2AM201  -1.0000
     5 C5'         32.9530    21.7960    19.5590 C.3          1 2AM201   0.0000
     6 O5'         31.6770    22.3590    19.3520 O.3          1 2AM201   0.0000
     7 C4'         32.8490    20.7690    20.6700 C.3          1 2AM201   0.0000
     8 O4'         32.2820    21.3820    21.8120 O.3          1 2AM201   0.0000
     9 C3'         31.9200    19.6380    20.2690 C.3          1 2AM201   0.0000
    10 O3'         32.5620    18.4320    20.6080 O.3          1 2AM201   0.0000
    11 C2'         30.6560    19.8490    21.0920 C.3          1 2AM201   0.0000
    12 O2'         30.0390    18.6630    21.5630 O.3          1 2AM201   0.0000
    13 C1'         31.1700    20.6360    22.2860 C.3          1 2AM201   0.0000
    14 N9          30.1240    21.5320    22.8090 N.pl3        1 2AM201   0.0000
    15 C8          29.4580    21.4310    24.0050 C.2          1 2AM201   0.0000
    16 N7          28.5840    22.4680    24.0860 N.2          1 2AM201   0.0000
    17 C5          28.6920    23.2220    22.9650 C.ar         1 2AM201   0.0000
    18 C6          28.0540    24.3780    22.5320 C.ar         1 2AM201   0.0000
    19 N6          27.1210    24.9620    23.2840 N.pl3        1 2AM201   0.0000
    20 N1          28.3940    24.9270    21.3090 N.ar         1 2AM201   0.0000
    21 C2          29.3510    24.3360    20.5130 C.ar         1 2AM201   0.0000
    22 N3          29.9810    23.1870    20.9540 N.ar         1 2AM201   0.0000
    23 C4          29.6570    22.6410    22.1540 C.ar         1 2AM201   0.0000
    24 H5'1        33.5997    22.5124    19.8208 H            1 2AM201   0.0000
    25 H5'2        33.2674    21.3540    18.7189 H            1 2AM201   0.0000
    26 H5'         31.3654    22.7975    20.1950 H            1 2AM201   0.0000
    27 H4'         33.7553    20.4074    20.8890 H            1 2AM201   0.0000
    28 H3'         31.7183    19.6720    19.2901 H            1 2AM201   0.0000
    29 H6          33.5528    18.5536    20.5484 H            1 2AM201   0.0000
    30 H2'         29.9977    20.3975    20.5764 H            1 2AM201   0.0000
    31 H1'         31.4663    20.0063    23.0041 H            1 2AM201   0.0000
    32 H9          29.5924    20.7197    24.6949 H            1 2AM201   0.0000
    33 H10         26.6682    25.7937    22.9627 H            1 2AM201   0.0000
    34 H11         26.8739    24.5684    24.1695 H            1 2AM201   0.0000
    35 H12         29.5872    24.7337    19.6264 H            1 2AM201   0.0000
@<TRIPOS>BOND
     1    1    2      ar
     2    1    3      ar
     3    1    4      ar
     4    1   12       1
     5    5    6       1
     6    5    7       1
     7    7    8       1
     8    7    9       1
     9    8   13       1
    10    9   10       1
    11    9   11       1
    12   11   12       1
    13   11   13       1
    14   13   14       1
    15   14   15       1
    16   14   23       1
    17   15   16       2
    18   16   17       1
    19   17   18      ar
    20   17   23      ar
    21   18   19       1
    22   18   20      ar
    23   20   21      ar
    24   21   22      ar
    25   22   23      ar
    26   21   35       1
    27   19   34       1
    28    5   24       1
    29    5   25       1
    30    6   26       1
    31    7   27       1
    32    9   28       1
    33   10   29       1
    34   11   30       1
    35   13   31       1
    36   15   32       1
    37   19   33       1
@<TRIPOS>SUBSTRUCTURE
     1 2AM201      1 GROUP             4 B     2AM     0 **** 2AM B 201
