@<TRIPOS>MOLECULE
3sug_SUE_1_ligand
  106   112     1     0     0
SMALL
NO_CHARGES


@<TRIPOS>ATOM
     1 C           15.9210    -8.6300   -14.6730 C.2          1 SUE1201   0.0000
     2 N           18.2600    -8.6740   -15.0540 N.am         1 SUE1201   0.0000
     3 O           15.6600    -7.8240   -15.5690 O.2          1 SUE1201   0.0000
     4 CA          17.1780    -8.5580   -14.0380 C.3          1 SUE1201   0.0000
     5 CB          17.3230    -7.2340   -13.2460 C.3          1 SUE1201   0.0000
     6 CAB         18.6490    -9.9170   -15.5810 C.2          1 SUE1201   0.0000
     7 NAC         12.5980   -14.0620   -13.9810 N.ar         1 SUE1201   0.0000
     8 CAD         11.5160   -17.1310   -15.6570 C.ar         1 SUE1201   0.0000
     9 CAE         10.9690   -15.6610   -13.3430 C.ar         1 SUE1201   0.0000
    10 CAF         20.5540   -11.4150   -18.3670 C.3          1 SUE1201   0.0000
    11 CAG         19.3490   -12.1500   -17.7880 C.3          1 SUE1201   0.0000
    12 CAH         20.1740   -11.2100   -16.8930 C.3          1 SUE1201   0.0000
    13 CAK          6.5420    -7.2390   -13.2840 C.3          1 SUE1201   0.0000
    14 CAL          7.1300    -8.3130   -14.0340 C.3          1 SUE1201   0.0000
    15 OAM          7.9780    -5.5640   -15.5020 O.2          1 SUE1201   0.0000
    16 SAN          8.9300    -6.0650   -14.4250 S.o2         1 SUE1201   0.0000
    17 CAO         12.1740    -6.4320   -16.4570 C.3          1 SUE1201   0.0000
    18 OAP         13.1860    -7.5420   -14.0400 O.2          1 SUE1201   0.0000
    19 CAQ         13.0750    -8.2740   -15.0230 C.2          1 SUE1201   0.0000
    20 CAR         18.5690    -7.3250   -12.3550 C.3          1 SUE1201   0.0000
    21 CAS         13.2890    -4.0230   -16.3130 C.3          1 SUE1201   0.0000
    22 CAT         12.2070   -15.9470   -15.3890 C.ar         1 SUE1201   0.0000
    23 CAU         19.4800   -13.6650   -17.4650 C.3          1 SUE1201   0.0000
    24 NAV         10.2130    -6.6520   -15.0170 N.am         1 SUE1201   0.0000
    25 CAW         13.3560    -5.4920   -16.7180 C.3          1 SUE1201   0.0000
    26 CAX         17.0810   -13.6550   -17.0520 C.3          1 SUE1201   0.0000
    27 CAY         10.5480   -17.5720   -14.7590 C.ar         1 SUE1201   0.0000
    28 OAZ         14.2470   -12.4700   -14.6710 O.3          1 SUE1201   0.0000
    29 CBA          8.8400   -16.3750   -11.7840 C.3          1 SUE1201   0.0000
    30 OBB          9.3230   -17.3130   -12.7470 O.3          1 SUE1201   0.0000
    31 CBC         18.4180   -14.0390   -16.4550 C.3          1 SUE1201   0.0000
    32 CBD         16.0600   -14.5620   -16.4420 C.3          1 SUE1201   0.0000
    33 CBE         13.5300   -13.6230   -14.8500 C.ar         1 SUE1201   0.0000
    34 CBF         13.8060   -14.3650   -16.0060 C.ar         1 SUE1201   0.0000
    35 CBG         11.9390   -15.2100   -14.2320 C.ar         1 SUE1201   0.0000
    36 NBH         13.1330   -15.5020   -16.2480 N.ar         1 SUE1201   0.0000
    37 CBI         14.7530   -13.9690   -16.9250 C.3          1 SUE1201   0.0000
    38 CBJ         10.2670   -16.8410   -13.6070 C.ar         1 SUE1201   0.0000
    39 OBK          9.3790    -4.9220   -13.4960 O.2          1 SUE1201   0.0000
    40 CBL          7.9750    -7.3420   -13.3240 C.3          1 SUE1201   0.0000
    41 OBM         10.3740    -4.8070   -16.2880 O.2          1 SUE1201   0.0000
    42 CBN         12.4720    -5.9500   -17.8280 C.3          1 SUE1201   0.0000
    43 CBO         10.8520    -5.8710   -15.8840 C.2          1 SUE1201   0.0000
    44 NBP         12.5580    -7.8490   -16.2050 N.am         1 SUE1201   0.0000
    45 CBQ         14.4530    -3.3850   -15.5380 C.3          1 SUE1201   0.0000
    46 OBR         18.0850   -10.9390   -15.1840 O.2          1 SUE1201   0.0000
    47 OBT         19.6400    -9.9090   -16.5260 O.3          1 SUE1201   0.0000
    48 CBX         12.7510   -10.5300   -14.1140 C.3          1 SUE1201   0.0000
    49 CBY         13.5850    -9.5930   -14.9700 C.3          1 SUE1201   0.0000
    50 NBZ         14.9670    -9.5200   -14.3360 N.am         1 SUE1201   0.0000
    51 CCA         15.0340   -10.5940   -13.3110 C.3          1 SUE1201   0.0000
    52 CCB         13.8460   -11.4990   -13.6370 C.3          1 SUE1201   0.0000
    53 CG1         16.0820    -7.0180   -12.3660 C.3          1 SUE1201   0.0000
    54 CG2         17.4730    -6.0100   -14.1630 C.3          1 SUE1201   0.0000
    55 H1          18.7221    -7.8453   -15.3697 H            1 SUE1201   0.0000
    56 HA          17.2570    -9.3228   -13.3986 H            1 SUE1201   0.0000
    57 HAD         11.7144   -17.6560   -16.4847 H            1 SUE1201   0.0000
    58 HAE         10.7731   -15.1397   -12.5124 H            1 SUE1201   0.0000
    59 HAF1        20.4181   -10.6745   -19.0252 H            1 SUE1201   0.0000
    60 HAF2        21.3825   -11.9229   -18.6030 H            1 SUE1201   0.0000
    61 HAG         18.4458   -11.8260   -18.0697 H            1 SUE1201   0.0000
    62 HAH         20.7671   -11.6500   -16.2188 H            1 SUE1201   0.0000
    63 HAK1         6.0540    -7.4367   -12.4338 H            1 SUE1201   0.0000
    64 HAK2         6.0849    -6.4906   -13.7645 H            1 SUE1201   0.0000
    65 HAL1         7.0905    -8.3077   -15.0332 H            1 SUE1201   0.0000
    66 HAL2         7.0597    -9.2539   -13.7026 H            1 SUE1201   0.0000
    67 HAR1        18.6724    -6.4749   -11.8387 H            1 SUE1201   0.0000
    68 HAR2        18.4693    -8.0908   -11.7197 H            1 SUE1201   0.0000
    69 HAR3        19.3773    -7.4687   -12.9260 H            1 SUE1201   0.0000
    70 HAS1        12.4722    -3.9170   -15.7459 H            1 SUE1201   0.0000
    71 HAS2        13.1803    -3.4960   -17.1559 H            1 SUE1201   0.0000
    72 HAU1        20.3861   -13.8509   -17.0850 H            1 SUE1201   0.0000
    73 HAU2        19.3528   -14.1994   -18.3006 H            1 SUE1201   0.0000
    74 HAV         10.5484    -7.5609   -14.7691 H            1 SUE1201   0.0000
    75 HAW         14.2626    -5.9125   -16.6819 H            1 SUE1201   0.0000
    76 HAX1        17.0996   -13.7755   -18.0445 H            1 SUE1201   0.0000
    77 HAX2        16.8682   -12.7021   -16.8358 H            1 SUE1201   0.0000
    78 HAY         10.0506   -18.4199   -14.9423 H            1 SUE1201   0.0000
    79 HBA1         8.1552   -16.8158   -11.2037 H            1 SUE1201   0.0000
    80 HBA2         9.6007   -16.0562   -11.2186 H            1 SUE1201   0.0000
    81 HBA3         8.4260   -15.5964   -12.2556 H            1 SUE1201   0.0000
    82 HBC1        18.5674   -13.5420   -15.6002 H            1 SUE1201   0.0000
    83 HBC2        18.4446   -15.0228   -16.2776 H            1 SUE1201   0.0000
    84 HBD1        16.1153   -14.5468   -15.4436 H            1 SUE1201   0.0000
    85 HBD2        16.1717   -15.5008   -16.7677 H            1 SUE1201   0.0000
    86 HBI1        14.5255   -14.3187   -17.8338 H            1 SUE1201   0.0000
    87 HBI2        14.8128   -12.9713   -16.9571 H            1 SUE1201   0.0000
    88 HBL          8.4322    -7.6583   -12.4928 H            1 SUE1201   0.0000
    89 HBN1        11.8539    -5.2992   -18.2690 H            1 SUE1201   0.0000
    90 HBN2        12.8260    -6.5888   -18.5111 H            1 SUE1201   0.0000
    91 HBP         12.4295    -8.5167   -16.9382 H            1 SUE1201   0.0000
    92 HBQ1        14.2450    -2.4241   -15.3555 H            1 SUE1201   0.0000
    93 HBQ2        14.5817    -3.8684   -14.6721 H            1 SUE1201   0.0000
    94 HBQ3        15.2897    -3.4474   -16.0821 H            1 SUE1201   0.0000
    95 HBX1        12.0492   -10.9980   -14.6512 H            1 SUE1201   0.0000
    96 HBX2        12.3208   -10.0503   -13.3493 H            1 SUE1201   0.0000
    97 HBY         13.6597    -9.9617   -15.8966 H            1 SUE1201   0.0000
    98 HCA1        14.9467   -10.2120   -12.3910 H            1 SUE1201   0.0000
    99 HCA2        15.8943   -11.0988   -13.3821 H            1 SUE1201   0.0000
   100 HCB         13.5443   -11.9794   -12.8135 H            1 SUE1201   0.0000
   101 HG11        16.1793    -6.1629   -11.8567 H            1 SUE1201   0.0000
   102 HG12        15.2675    -6.9708   -12.9442 H            1 SUE1201   0.0000
   103 HG13        15.9916    -7.7797   -11.7244 H            1 SUE1201   0.0000
   104 HG21        17.5628    -5.1848   -13.6054 H            1 SUE1201   0.0000
   105 HG22        18.2880    -6.1179   -14.7323 H            1 SUE1201   0.0000
   106 HG23        16.6658    -5.9309   -14.7480 H            1 SUE1201   0.0000
@<TRIPOS>BOND
     1    1    3       2
     2    1    4       1
     3    1   50      am
     4    2    4       1
     5    2    6      am
     6    4    5       1
     7    5   20       1
     8    5   53       1
     9    5   54       1
    10    6   46       2
    11    6   47       1
    12    7   33      ar
    13    7   35      ar
    14    8   22      ar
    15    8   27      ar
    16    9   35      ar
    17    9   38      ar
    18   10   11       1
    19   10   12       1
    20   11   12       1
    21   11   23       1
    22   12   47       1
    23   13   14       1
    24   13   40       1
    25   14   40       1
    26   15   16       2
    27   16   24       1
    28   16   39       2
    29   16   40       1
    30   17   25       1
    31   17   42       1
    32   17   43       1
    33   17   44       1
    34   18   19       2
    35   19   44      am
    36   19   49       1
    37   21   25       1
    38   21   45       1
    39   22   35      ar
    40   22   36      ar
    41   23   31       1
    42   24   43      am
    43   25   42       1
    44   26   31       1
    45   26   32       1
    46   27   38      ar
    47   28   33       1
    48   28   52       1
    49   29   30       1
    50   30   38       1
    51   32   37       1
    52   33   34      ar
    53   34   36      ar
    54   34   37       1
    55   41   43       2
    56   48   49       1
    57   48   52       1
    58   49   50       1
    59   50   51       1
    60   51   52       1
    61    2   55       1
    62    4   56       1
    63    8   57       1
    64    9   58       1
    65   10   59       1
    66   10   60       1
    67   11   61       1
    68   12   62       1
    69   13   63       1
    70   13   64       1
    71   14   65       1
    72   14   66       1
    73   20   67       1
    74   20   68       1
    75   20   69       1
    76   21   70       1
    77   21   71       1
    78   23   72       1
    79   23   73       1
    80   24   74       1
    81   25   75       1
    82   26   76       1
    83   26   77       1
    84   27   78       1
    85   29   79       1
    86   29   80       1
    87   29   81       1
    88   31   82       1
    89   31   83       1
    90   32   84       1
    91   32   85       1
    92   37   86       1
    93   37   87       1
    94   40   88       1
    95   42   89       1
    96   42   90       1
    97   44   91       1
    98   45   92       1
    99   45   93       1
   100   45   94       1
   101   48   95       1
   102   48   96       1
   103   49   97       1
   104   51   98       1
   105   51   99       1
   106   52  100       1
   107   53  101       1
   108   53  102       1
   109   53  103       1
   110   54  104       1
   111   54  105       1
   112   54  106       1
@<TRIPOS>SUBSTRUCTURE
     1 SUE1201     1 GROUP             4 A     SUE     0 **** SUE A1201
