@<TRIPOS>MOLECULE
3tjz_GNP_2_ligand
   45    47     1     0     0
SMALL
NO_CHARGES


@<TRIPOS>ATOM
     1 PG          21.5370   -52.8670    -7.0130 P.3          1 GNP201   0.0000
     2 O1G         21.3120   -53.2000    -5.5640 O.co2        1 GNP201   0.0000
     3 O2G         21.7380   -54.0370    -7.9800 O.co2        1 GNP201  -1.0000
     4 O3G         22.7200   -51.9320    -6.9090 O.co2        1 GNP201  -1.0000
     5 N3B         20.2800   -52.0330    -7.5760 N.3          1 GNP201   0.0000
     6 PB          19.9750   -51.7430    -9.1380 P.3          1 GNP201   0.0000
     7 O1B         20.0920   -50.2960    -9.4110 O.co2        1 GNP201   0.0000
     8 O2B         20.8290   -52.6460    -9.9860 O.co2        1 GNP201  -1.0000
     9 O3A         18.4710   -52.0420    -9.3560 O.3          1 GNP201   0.0000
    10 PA          17.8370   -53.0260   -10.3870 P.3          1 GNP201   0.0000
    11 O1A         18.0820   -52.5920   -11.7910 O.co2        1 GNP201   0.0000
    12 O2A         18.2160   -54.4530   -10.1210 O.co2        1 GNP201  -1.0000
    13 O5'         16.2840   -52.8640   -10.2300 O.3          1 GNP201   0.0000
    14 C5'         15.6410   -52.6860    -8.9990 C.3          1 GNP201   0.0000
    15 C4'         14.1570   -52.7710    -9.2610 C.3          1 GNP201   0.0000
    16 O4'         13.7560   -51.5400    -9.9180 O.3          1 GNP201   0.0000
    17 C3'         13.7400   -53.9040   -10.2030 C.3          1 GNP201   0.0000
    18 O3'         12.4260   -54.3540    -9.8990 O.3          1 GNP201   0.0000
    19 C2'         13.7370   -53.2000   -11.5600 C.3          1 GNP201   0.0000
    20 O2'         12.9090   -53.7980   -12.5320 O.3          1 GNP201   0.0000
    21 C1'         13.0820   -51.9150   -11.1110 C.3          1 GNP201   0.0000
    22 N9          13.1660   -50.8630   -12.1080 N.pl3        1 GNP201   0.0000
    23 C8          14.2630   -50.4890   -12.8480 C.2          1 GNP201   0.0000
    24 N7          13.9860   -49.4970   -13.6460 N.2          1 GNP201   0.0000
    25 C5          12.6380   -49.2080   -13.4170 C.2          1 GNP201   0.0000
    26 C6          11.7930   -48.2330   -13.9920 C.2          1 GNP201   0.0000
    27 O6          12.0550   -47.3810   -14.8560 O.2          1 GNP201   0.0000
    28 N1          10.5130   -48.2940   -13.4650 N.pl3        1 GNP201   0.0000
    29 C2          10.0870   -49.1780   -12.5080 C.2          1 GNP201   0.0000
    30 N2           8.8050   -49.0690   -12.1340 N.pl3        1 GNP201   0.0000
    31 N3          10.8600   -50.1020   -11.9650 N.2          1 GNP201   0.0000
    32 C4          12.1170   -50.0490   -12.4710 C.2          1 GNP201   0.0000
    33 H3B         19.4705   -52.5083    -7.2314 H            1 GNP201   0.0000
    34 H5'1        15.8718   -51.7911    -8.6171 H            1 GNP201   0.0000
    35 H5'2        15.9186   -53.4029    -8.3595 H            1 GNP201   0.0000
    36 H4'         13.6688   -52.8611    -8.3929 H            1 GNP201   0.0000
    37 H3'         14.3980   -54.6568   -10.1831 H            1 GNP201   0.0000
    38 H6          12.0624   -53.8266    -9.1311 H            1 GNP201   0.0000
    39 H2'         14.6638   -53.0464   -11.9027 H            1 GNP201   0.0000
    40 H8          12.9658   -53.2776   -13.3841 H            1 GNP201   0.0000
    41 H1'         12.1203   -52.0928   -10.9022 H            1 GNP201   0.0000
    42 H10         15.1610   -50.9240   -12.7819 H            1 GNP201   0.0000
    43 H11          9.8433   -47.6375   -13.8122 H            1 GNP201   0.0000
    44 H12          8.4327   -49.6847   -11.4396 H            1 GNP201   0.0000
    45 H13          8.2205   -48.3719   -12.5493 H            1 GNP201   0.0000
@<TRIPOS>BOND
     1    1    2      ar
     2    1    3      ar
     3    1    4      ar
     4    1    5       1
     5    5    6       1
     6    6    7      ar
     7    6    8      ar
     8    6    9       1
     9    9   10       1
    10   10   11      ar
    11   10   12      ar
    12   10   13       1
    13   13   14       1
    14   14   15       1
    15   15   16       1
    16   15   17       1
    17   16   21       1
    18   17   18       1
    19   17   19       1
    20   19   20       1
    21   19   21       1
    22   21   22       1
    23   22   23       1
    24   22   32       1
    25   23   24       2
    26   24   25       1
    27   25   26       1
    28   25   32       2
    29   26   27       2
    30   26   28       1
    31   28   29       1
    32   29   30       1
    33   29   31       2
    34   31   32       1
    35   30   45       1
    36   30   44       1
    37    5   33       1
    38   28   43       1
    39   23   42       1
    40   14   34       1
    41   14   35       1
    42   15   36       1
    43   17   37       1
    44   18   38       1
    45   19   39       1
    46   20   40       1
    47   21   41       1
@<TRIPOS>SUBSTRUCTURE
     1 GNP201      1 GROUP             4 D     GNP     0 **** GNP D 201
