@<TRIPOS>MOLECULE
3w68_VIV_2_ligand
   79    80     1     0     0
SMALL
NO_CHARGES


@<TRIPOS>ATOM
     1 O1          25.2650   -27.6970     8.2990 O.3          1 VIV301   0.0000
     2 O2          28.5450   -24.5280    11.4080 O.3          1 VIV301   0.0000
     3 C1          23.3230   -27.5650    -0.6860 C.3          1 VIV301   0.0000
     4 C2          27.9660   -25.3720     9.2370 C.ar         1 VIV301   0.0000
     5 C3          27.1550   -26.1700     8.4190 C.ar         1 VIV301   0.0000
     6 C4          26.1140   -26.9000     9.0290 C.ar         1 VIV301   0.0000
     7 C5          25.8890   -26.8450    10.4090 C.ar         1 VIV301   0.0000
     8 C6          26.7010   -26.0490    11.2130 C.ar         1 VIV301   0.0000
     9 C7          27.7450   -25.3100    10.6270 C.ar         1 VIV301   0.0000
    10 C8          29.1230   -24.5550     8.5900 C.3          1 VIV301   0.0000
    11 C9          25.1770   -27.5430     6.8740 C.3          1 VIV301   0.0000
    12 C10         27.3960   -26.2520     6.8930 C.3          1 VIV301   0.0000
    13 C11         26.5860   -27.4000     6.2550 C.3          1 VIV301   0.0000
    14 C12         24.7210   -27.6620    11.0150 C.3          1 VIV301   0.0000
    15 C13         26.4380   -25.9830    12.7340 C.3          1 VIV301   0.0000
    16 C14         24.2920   -26.3260     6.5830 C.3          1 VIV301   0.0000
    17 C15         24.5170   -28.8560     6.3700 C.3          1 VIV301   0.0000
    18 C16         24.2620   -28.8930     4.8490 C.3          1 VIV301   0.0000
    19 C17         23.5130   -30.1940     4.4880 C.3          1 VIV301   0.0000
    20 C18         23.2000   -30.2500     2.9960 C.3          1 VIV301   0.0000
    21 C19         22.1290   -31.3270     2.7320 C.3          1 VIV301   0.0000
    22 C20         24.5160   -30.4580     2.1990 C.3          1 VIV301   0.0000
    23 C21         24.2820   -30.7880     0.8560 C.2          1 VIV301   0.0000
    24 C22         24.2290   -29.8470    -0.1770 C.2          1 VIV301   0.0000
    25 C23         24.4430   -28.3340     0.0350 C.3          1 VIV301   0.0000
    26 C24         25.8450   -27.9500    -0.4590 C.3          1 VIV301   0.0000
    27 C25         26.2830   -26.4950    -0.1330 C.3          1 VIV301   0.0000
    28 C26         25.8870   -26.0000     1.2640 C.3          1 VIV301   0.0000
    29 C27         26.6030   -24.7000     1.6640 C.3          1 VIV301   0.0000
    30 C28         26.5210   -24.4930     3.1790 C.3          1 VIV301   0.0000
    31 C29         26.0170   -23.4920     0.9470 C.3          1 VIV301   0.0000
    32 H1          29.2865   -24.0003    10.9936 H            1 VIV301   0.0000
    33 H2          23.4544   -26.5826    -0.5534 H            1 VIV301   0.0000
    34 H3          23.3494   -27.7760    -1.6631 H            1 VIV301   0.0000
    35 H4          22.4369   -27.8365    -0.3102 H            1 VIV301   0.0000
    36 H5          29.6053   -24.0409     9.2993 H            1 VIV301   0.0000
    37 H6          29.7606   -25.1797     8.1392 H            1 VIV301   0.0000
    38 H7          28.7461   -23.9197     7.9159 H            1 VIV301   0.0000
    39 H8          28.3694   -26.4085     6.7254 H            1 VIV301   0.0000
    40 H9          27.1204   -25.3872     6.4733 H            1 VIV301   0.0000
    41 H10         26.4898   -27.2196     5.2761 H            1 VIV301   0.0000
    42 H11         27.0838   -28.2569     6.3886 H            1 VIV301   0.0000
    43 H12         24.6919   -27.5186    12.0042 H            1 VIV301   0.0000
    44 H13         23.8580   -27.3613    10.6091 H            1 VIV301   0.0000
    45 H14         24.8590   -28.6336    10.8230 H            1 VIV301   0.0000
    46 H15         27.1044   -25.3720    13.1613 H            1 VIV301   0.0000
    47 H16         25.5146   -25.6360    12.8979 H            1 VIV301   0.0000
    48 H17         26.5248   -26.8983    13.1273 H            1 VIV301   0.0000
    49 H18         24.2156   -26.1982     5.5941 H            1 VIV301   0.0000
    50 H19         23.3825   -26.4748     6.9711 H            1 VIV301   0.0000
    51 H20         24.7005   -25.5109     6.9939 H            1 VIV301   0.0000
    52 H21         23.6399   -28.9656     6.8377 H            1 VIV301   0.0000
    53 H22         25.1181   -29.6196     6.6057 H            1 VIV301   0.0000
    54 H23         25.1356   -28.8648     4.3632 H            1 VIV301   0.0000
    55 H24         23.7076   -28.1040     4.5841 H            1 VIV301   0.0000
    56 H25         22.6568   -30.2319     5.0032 H            1 VIV301   0.0000
    57 H26         24.0837   -30.9781     4.7319 H            1 VIV301   0.0000
    58 H27         22.8171   -29.3654     2.7298 H            1 VIV301   0.0000
    59 H28         21.9255   -31.3619     1.7536 H            1 VIV301   0.0000
    60 H29         22.4702   -32.2173     3.0335 H            1 VIV301   0.0000
    61 H30         21.2966   -31.1004     3.2377 H            1 VIV301   0.0000
    62 H31         25.0361   -31.1980     2.6255 H            1 VIV301   0.0000
    63 H32         25.0493   -29.6128     2.2337 H            1 VIV301   0.0000
    64 H33         24.1453   -31.7511     0.6240 H            1 VIV301   0.0000
    65 H34         24.0422   -30.1726    -1.1039 H            1 VIV301   0.0000
    66 H35         24.3852   -28.1380     1.0139 H            1 VIV301   0.0000
    67 H36         25.8657   -28.0646    -1.4522 H            1 VIV301   0.0000
    68 H37         26.5035   -28.5736    -0.0377 H            1 VIV301   0.0000
    69 H38         25.8662   -25.8863    -0.8081 H            1 VIV301   0.0000
    70 H39         27.2788   -26.4457    -0.2095 H            1 VIV301   0.0000
    71 H40         26.1171   -26.7090     1.9307 H            1 VIV301   0.0000
    72 H41         24.9003   -25.8377     1.2771 H            1 VIV301   0.0000
    73 H42         27.5666   -24.7803     1.4091 H            1 VIV301   0.0000
    74 H43         26.9901   -23.6449     3.4254 H            1 VIV301   0.0000
    75 H44         25.5619   -24.4361     3.4562 H            1 VIV301   0.0000
    76 H45         26.9575   -25.2628     3.6447 H            1 VIV301   0.0000
    77 H46         26.5055   -22.6668     1.2305 H            1 VIV301   0.0000
    78 H47         26.1118   -23.6126    -0.0412 H            1 VIV301   0.0000
    79 H48         25.0488   -23.4030     1.1806 H            1 VIV301   0.0000
@<TRIPOS>BOND
     1    1    6       1
     2    1   11       1
     3    2    9       1
     4    3   25       1
     5    4    5      ar
     6    4    9      ar
     7    4   10       1
     8    5    6      ar
     9    5   12       1
    10    6    7      ar
    11    7    8      ar
    12    7   14       1
    13    8    9      ar
    14    8   15       1
    15   11   13       1
    16   11   16       1
    17   11   17       1
    18   12   13       1
    19   17   18       1
    20   18   19       1
    21   19   20       1
    22   20   21       1
    23   20   22       1
    24   22   23       1
    25   23   24       2
    26   24   25       1
    27   25   26       1
    28   26   27       1
    29   27   28       1
    30   28   29       1
    31   29   30       1
    32   29   31       1
    33    2   32       1
    34    3   33       1
    35    3   34       1
    36    3   35       1
    37   10   36       1
    38   10   37       1
    39   10   38       1
    40   12   39       1
    41   12   40       1
    42   13   41       1
    43   13   42       1
    44   14   43       1
    45   14   44       1
    46   14   45       1
    47   15   46       1
    48   15   47       1
    49   15   48       1
    50   16   49       1
    51   16   50       1
    52   16   51       1
    53   17   52       1
    54   17   53       1
    55   18   54       1
    56   18   55       1
    57   19   56       1
    58   19   57       1
    59   20   58       1
    60   21   59       1
    61   21   60       1
    62   21   61       1
    63   22   62       1
    64   22   63       1
    65   23   64       1
    66   24   65       1
    67   25   66       1
    68   26   67       1
    69   26   68       1
    70   27   69       1
    71   27   70       1
    72   28   71       1
    73   28   72       1
    74   29   73       1
    75   30   74       1
    76   30   75       1
    77   30   76       1
    78   31   77       1
    79   31   78       1
    80   31   79       1
@<TRIPOS>SUBSTRUCTURE
     1 VIV301      1 GROUP             4 B     VIV     0 **** VIV B 301
