@<TRIPOS>MOLECULE
2yut_NAP_1_ligand
   73    77     1     0     0
SMALL
NO_CHARGES


@<TRIPOS>ATOM
     1 PA          41.8680    43.5060     2.1760 P.3          1 NAP500   0.0000
     2 O1A         43.1940    43.0860     1.3660 O.co2        1 NAP500   0.0000
     3 O2A         40.9660    44.3800     1.3930 O.co2        1 NAP500  -1.0000
     4 O5B         42.3870    44.2210     3.5190 O.3          1 NAP500   0.0000
     5 C5B         43.3900    43.5990     4.3250 C.3          1 NAP500   0.0000
     6 C4B         43.7250    44.4840     5.5250 C.3          1 NAP500   0.0000
     7 O4B         44.7220    43.8100     6.3130 O.3          1 NAP500   0.0000
     8 C3B         44.3440    45.8040     5.0550 C.3          1 NAP500   0.0000
     9 O3B         43.8450    46.8840     5.8490 O.3          1 NAP500   0.0000
    10 C2B         45.8290    45.5900     5.3430 C.3          1 NAP500   0.0000
    11 O2B         46.4420    46.8470     5.6390 O.3          1 NAP500   0.0000
    12 C1B         45.6910    44.8120     6.6510 C.3          1 NAP500   0.0000
    13 N9A         46.9840    44.1940     7.0190 N.pl3        1 NAP500   0.0000
    14 C8A         47.6160    43.2450     6.3320 C.2          1 NAP500   0.0000
    15 N7A         48.7650    42.9500     6.9360 N.2          1 NAP500   0.0000
    16 C5A         48.8650    43.7170     8.0170 C.ar         1 NAP500   0.0000
    17 C6A         49.8280    43.8730     9.0060 C.ar         1 NAP500   0.0000
    18 N6A         50.9380    43.1400     8.9870 N.pl3        1 NAP500   0.0000
    19 N1A         49.6210    44.7760     9.9750 N.ar         1 NAP500   0.0000
    20 C2A         48.5220    45.5100     9.9990 C.ar         1 NAP500   0.0000
    21 N3A         47.5860    45.3900     9.0750 N.ar         1 NAP500   0.0000
    22 C4A         47.7280    44.5090     8.0750 C.ar         1 NAP500   0.0000
    23 O3          41.1950    42.1140     2.6310 O.3          1 NAP500   0.0000
    24 PN          39.6570    41.9930     3.0940 P.3          1 NAP500   0.0000
    25 O1N         38.8670    41.3840     1.9990 O.co2        1 NAP500   0.0000
    26 O2N         39.1970    43.2770     3.6680 O.co2        1 NAP500  -1.0000
    27 O5D         39.7260    40.8980     4.2730 O.3          1 NAP500   0.0000
    28 C5D         39.5500    41.2800     5.6400 C.3          1 NAP500   0.0000
    29 C4D         39.5080    40.0540     6.5570 C.3          1 NAP500   0.0000
    30 O4D         38.4250    39.2220     6.0960 O.3          1 NAP500   0.0000
    31 C3D         40.7810    39.2180     6.4060 C.3          1 NAP500   0.0000
    32 O3D         41.0270    38.4390     7.5800 O.3          1 NAP500   0.0000
    33 C2D         40.4000    38.3050     5.2440 C.3          1 NAP500   0.0000
    34 O2D         41.1920    37.1140     5.2340 O.3          1 NAP500   0.0000
    35 C1D         38.9810    37.9590     5.6910 C.3          1 NAP500   0.0000
    36 N1N         38.1820    37.3010     4.6330 N.ar         1 NAP500   1.0000
    37 C2N         38.0510    37.9030     3.3750 C.ar         1 NAP500   0.0000
    38 C3N         37.3030    37.2780     2.3840 C.ar         1 NAP500   0.0000
    39 C7N         37.1520    37.9370     1.0110 C.2          1 NAP500   0.0000
    40 O7N         36.6530    37.3270     0.0670 O.2          1 NAP500   0.0000
    41 N7N         37.6060    39.1850     0.9350 N.am         1 NAP500   0.0000
    42 C4N         36.6880    36.0580     2.6410 C.ar         1 NAP500   0.0000
    43 C5N         36.8140    35.4570     3.8890 C.ar         1 NAP500   0.0000
    44 C6N         37.5590    36.0730     4.8870 C.ar         1 NAP500   0.0000
    45 P2B         47.1290    47.7510     4.4960 P.3          1 NAP500   0.0000
    46 O1X         46.2120    47.6460     3.1770 O.co2        1 NAP500   0.0000
    47 O2X         46.9960    49.2650     5.0300 O.co2        1 NAP500  -1.0000
    48 O3X         48.5340    47.3630     4.2380 O.co2        1 NAP500  -1.0000
    49 H5B1        44.2147    43.4593     3.7769 H            1 NAP500   0.0000
    50 H5B2        43.0521    42.7157     4.6499 H            1 NAP500   0.0000
    51 H4B         42.9056    44.6570     6.0714 H            1 NAP500   0.0000
    52 H3B         44.1789    45.9592     4.0810 H            1 NAP500   0.0000
    53 H5          44.2524    47.7426     5.5377 H            1 NAP500   0.0000
    54 H2B         46.3017    45.0781     4.6257 H            1 NAP500   0.0000
    55 H1B         45.3546    45.4022     7.3848 H            1 NAP500   0.0000
    56 H8A         47.2796    42.8194     5.4919 H            1 NAP500   0.0000
    57 H6A1        51.6271    43.2575     9.7021 H            1 NAP500   0.0000
    58 H6A2        51.0833    42.4715     8.2576 H            1 NAP500   0.0000
    59 H2A         48.3959    46.1737    10.7363 H            1 NAP500   0.0000
    60 H5D1        38.6910    41.7840     5.7298 H            1 NAP500   0.0000
    61 H5D2        40.3113    41.8671     5.9152 H            1 NAP500   0.0000
    62 H4D         39.3696    40.3251     7.5096 H            1 NAP500   0.0000
    63 H3D         41.5682    39.7906     6.1768 H            1 NAP500   0.0000
    64 H16         41.9127    38.6927     7.9689 H            1 NAP500   0.0000
    65 H2D         40.4168    38.7808     4.3646 H            1 NAP500   0.0000
    66 H18         40.9189    36.5386     4.4631 H            1 NAP500   0.0000
    67 H1D         39.0286    37.3545     6.4862 H            1 NAP500   0.0000
    68 H2N         38.4944    38.7801     3.1903 H            1 NAP500   0.0000
    69 H7N1        37.5450    39.6876     0.0726 H            1 NAP500   0.0000
    70 H7N2        38.0083    39.6206     1.7402 H            1 NAP500   0.0000
    71 H4N         36.1523    35.6103     1.9250 H            1 NAP500   0.0000
    72 H5N         36.3677    34.5802     4.0682 H            1 NAP500   0.0000
    73 H6N         37.6500    35.6406     5.7841 H            1 NAP500   0.0000
@<TRIPOS>BOND
     1    1    2      ar
     2    1    3      ar
     3    1    4       1
     4    1   23       1
     5    4    5       1
     6    5    6       1
     7    6    7       1
     8    6    8       1
     9    7   12       1
    10    8    9       1
    11    8   10       1
    12   10   11       1
    13   10   12       1
    14   11   45       1
    15   12   13       1
    16   13   14       1
    17   13   22       1
    18   14   15       2
    19   15   16       1
    20   16   17      ar
    21   16   22      ar
    22   17   18       1
    23   17   19      ar
    24   19   20      ar
    25   20   21      ar
    26   21   22      ar
    27   23   24       1
    28   24   25      ar
    29   24   26      ar
    30   24   27       1
    31   27   28       1
    32   28   29       1
    33   29   30       1
    34   29   31       1
    35   30   35       1
    36   31   32       1
    37   31   33       1
    38   33   34       1
    39   33   35       1
    40   35   36       1
    41   36   37      ar
    42   36   44      ar
    43   37   38      ar
    44   38   39       1
    45   38   42      ar
    46   39   40       2
    47   39   41      am
    48   42   43      ar
    49   43   44      ar
    50   45   46      ar
    51   45   47      ar
    52   45   48      ar
    53   43   72       1
    54    5   49       1
    55    5   50       1
    56    6   51       1
    57    8   52       1
    58    9   53       1
    59   10   54       1
    60   12   55       1
    61   14   56       1
    62   18   57       1
    63   18   58       1
    64   20   59       1
    65   44   73       1
    66   28   60       1
    67   28   61       1
    68   29   62       1
    69   31   63       1
    70   32   64       1
    71   33   65       1
    72   34   66       1
    73   35   67       1
    74   37   68       1
    75   41   69       1
    76   41   70       1
    77   42   71       1
@<TRIPOS>SUBSTRUCTURE
     1 NAP500      1 GROUP             4 A     NAP     0 **** NAP A 500
