@<TRIPOS>MOLECULE
3p8z_SAH_2_ligand
   46    48     1     0     0
SMALL
NO_CHARGES


@<TRIPOS>ATOM
     1 N           16.3550    17.6510    10.9440 N.4          1 SAH263   1.0000
     2 CA          16.9490    18.5650     9.9060 C.3          1 SAH263   0.0000
     3 CB          15.8520    18.9500     8.9270 C.3          1 SAH263   0.0000
     4 CG          15.4640    17.6950     8.1640 C.3          1 SAH263   0.0000
     5 SD          14.4570    18.0930     6.7350 S.3          1 SAH263   0.0000
     6 C           17.5760    19.8050    10.5250 C.2          1 SAH263   0.0000
     7 O           18.0230    20.7390     9.8190 O.co2        1 SAH263   0.0000
     8 OXT         17.6200    19.9080    11.7700 O.co2        1 SAH263  -1.0000
     9 C5'         14.4470    16.4330     6.0280 C.3          1 SAH263   0.0000
    10 C4'         15.4570    16.2390     4.8970 C.3          1 SAH263   0.0000
    11 O4'         15.3160    14.9240     4.3840 O.3          1 SAH263   0.0000
    12 C3'         15.3210    17.1980     3.7190 C.3          1 SAH263   0.0000
    13 O3'         16.4460    18.0510     3.6830 O.3          1 SAH263   0.0000
    14 C2'         15.2930    16.2860     2.4980 C.3          1 SAH263   0.0000
    15 O2'         16.0770    16.7300     1.3970 O.3          1 SAH263   0.0000
    16 C1'         15.7950    14.9640     3.0460 C.3          1 SAH263   0.0000
    17 N9          15.2320    13.7960     2.3570 N.pl3        1 SAH263   0.0000
    18 C8          13.9570    13.6420     1.8560 C.2          1 SAH263   0.0000
    19 N7          13.8690    12.3930     1.3270 N.2          1 SAH263   0.0000
    20 C5          15.0550    11.7570     1.4900 C.ar         1 SAH263   0.0000
    21 C6          15.5020    10.4850     1.1550 C.ar         1 SAH263   0.0000
    22 N6          14.6940     9.6120     0.5230 N.pl3        1 SAH263   0.0000
    23 N1          16.7990    10.1110     1.4980 N.ar         1 SAH263   0.0000
    24 C2          17.6260    11.0140     2.1380 C.ar         1 SAH263   0.0000
    25 N3          17.1730    12.2750     2.4650 N.ar         1 SAH263   0.0000
    26 C4          15.9130    12.6450     2.1520 C.ar         1 SAH263   0.0000
    27 H1          16.8292    16.7708    10.9237 H            1 SAH263   0.0000
    28 H2          16.4570    18.0637    11.8491 H            1 SAH263   0.0000
    29 HA          17.6577    18.0642     9.4091 H            1 SAH263   0.0000
    30 HB1         16.1888    19.6456     8.2924 H            1 SAH263   0.0000
    31 HB2         15.0606    19.3068     9.4233 H            1 SAH263   0.0000
    32 HG1         14.9464    17.0912     8.7702 H            1 SAH263   0.0000
    33 HG2         16.2943    17.2287     7.8587 H            1 SAH263   0.0000
    34 H5'1        13.5321    16.2486     5.6690 H            1 SAH263   0.0000
    35 H5'2        14.6579    15.7793     6.7548 H            1 SAH263   0.0000
    36 H4'         16.3776    16.3330     5.2761 H            1 SAH263   0.0000
    37 H3'         14.4753    17.7273     3.7871 H            1 SAH263   0.0000
    38 H12         16.3613    18.6820     2.9118 H            1 SAH263   0.0000
    39 H2'         14.3457    16.1743     2.1979 H            1 SAH263   0.0000
    40 H14         17.0341    16.8034     1.6774 H            1 SAH263   0.0000
    41 H1'         16.7944    14.9336     3.0296 H            1 SAH263   0.0000
    42 H16         13.2280    14.3261     1.8778 H            1 SAH263   0.0000
    43 H17         15.0297     8.6998     0.2882 H            1 SAH263   0.0000
    44 H18         13.7584     9.8761     0.2886 H            1 SAH263   0.0000
    45 H19         18.5632    10.7504     2.3666 H            1 SAH263   0.0000
    46 H20         15.3842    17.5113    10.7488 H            1 SAH263   0.0000
@<TRIPOS>BOND
     1    1    2       1
     2    2    3       1
     3    2    6       1
     4    3    4       1
     5    4    5       1
     6    5    9       1
     7    6    7      ar
     8    6    8      ar
     9    9   10       1
    10   10   11       1
    11   10   12       1
    12   11   16       1
    13   12   13       1
    14   12   14       1
    15   14   15       1
    16   14   16       1
    17   16   17       1
    18   17   18       1
    19   17   26       1
    20   18   19       2
    21   19   20       1
    22   20   21      ar
    23   20   26      ar
    24   21   22       1
    25   21   23      ar
    26   23   24      ar
    27   24   25      ar
    28   25   26      ar
    29    1   27       1
    30    1   28       1
    31    2   29       1
    32    3   30       1
    33    3   31       1
    34    4   32       1
    35    4   33       1
    36    1   46       1
    37    9   34       1
    38    9   35       1
    39   10   36       1
    40   12   37       1
    41   13   38       1
    42   14   39       1
    43   15   40       1
    44   16   41       1
    45   18   42       1
    46   22   43       1
    47   22   44       1
    48   24   45       1
@<TRIPOS>SUBSTRUCTURE
     1 SAH263      1 GROUP             4 C     SAH     0 **** SAH C 263
