@<TRIPOS>MOLECULE
4b48_GTP_1_ligand
   44    46     1     0     0
SMALL
NO_CHARGES


@<TRIPOS>ATOM
     1 PG          15.9790     8.2040    42.4120 P.3          1 GTP1355   0.0000
     2 O1G         16.2670     7.5940    41.0620 O.co2        1 GTP1355   0.0000
     3 O2G         15.7450     7.0970    43.4070 O.co2        1 GTP1355  -1.0000
     4 O3G         17.1450     9.0580    42.8480 O.co2        1 GTP1355  -1.0000
     5 O3B         14.6570     9.1080    42.2710 O.3          1 GTP1355   0.0000
     6 PB          13.2230     8.3950    42.3630 P.3          1 GTP1355   0.0000
     7 O1B         12.9690     7.5490    41.1410 O.co2        1 GTP1355   0.0000
     8 O2B         13.1140     7.5650    43.6140 O.co2        1 GTP1355  -1.0000
     9 O3A         12.1650     9.5900    42.4910 O.3          1 GTP1355   0.0000
    10 PA          10.6370     9.1710    42.7330 P.3          1 GTP1355   0.0000
    11 O1A         10.3530     7.8630    42.0430 O.co2        1 GTP1355   0.0000
    12 O2A          9.6890    10.2460    42.2740 O.co2        1 GTP1355  -1.0000
    13 O5'         10.5790     8.9590    44.3250 O.3          1 GTP1355   0.0000
    14 C5'         10.0870     7.7540    44.8640 C.3          1 GTP1355   0.0000
    15 C4'          8.8010     8.0220    45.6300 C.3          1 GTP1355   0.0000
    16 O4'          8.7040     9.3970    45.9400 O.3          1 GTP1355   0.0000
    17 C3'          7.5740     7.6690    44.8090 C.3          1 GTP1355   0.0000
    18 O3'          6.7890     6.7540    45.5310 O.3          1 GTP1355   0.0000
    19 C2'          6.8020     8.9600    44.6840 C.3          1 GTP1355   0.0000
    20 O2'          5.4240     8.7320    44.8440 O.3          1 GTP1355   0.0000
    21 C1'          7.3580     9.8000    45.8180 C.3          1 GTP1355   0.0000
    22 N9           7.2630    11.2310    45.5000 N.pl3        1 GTP1355   0.0000
    23 C8           7.8850    11.8870    44.4760 C.2          1 GTP1355   0.0000
    24 N7           7.5390    13.1920    44.5340 N.2          1 GTP1355   0.0000
    25 C5           6.7090    13.3760    45.5830 C.2          1 GTP1355   0.0000
    26 C6           6.0700    14.5000    46.0860 C.2          1 GTP1355   0.0000
    27 O6           6.2250    15.5930    45.5440 O.2          1 GTP1355   0.0000
    28 N1           5.2630    14.3810    47.1990 N.pl3        1 GTP1355   0.0000
    29 C2           5.0960    13.1500    47.8000 C.2          1 GTP1355   0.0000
    30 N2           4.3180    13.0330    48.8700 N.pl3        1 GTP1355   0.0000
    31 N3           5.7350    12.0390    47.2910 N.2          1 GTP1355   0.0000
    32 C4           6.5290    12.1500    46.2000 C.2          1 GTP1355   0.0000
    33 H5'1        10.7682     7.3647    45.4840 H            1 GTP1355   0.0000
    34 H5'2         9.9038     7.1086    44.1225 H            1 GTP1355   0.0000
    35 H4'          8.8002     7.4890    46.4761 H            1 GTP1355   0.0000
    36 H3'          7.8265     7.3059    43.9121 H            1 GTP1355   0.0000
    37 H5           5.9780     6.5161    44.9965 H            1 GTP1355   0.0000
    38 H2'          6.9857     9.3948    43.8024 H            1 GTP1355   0.0000
    39 H7           5.2538     8.3398    45.7480 H            1 GTP1355   0.0000
    40 H1'          6.8633     9.6035    46.6646 H            1 GTP1355   0.0000
    41 H9           8.4928    11.4722    43.7988 H            1 GTP1355   0.0000
    42 H10          4.7997    15.1859    47.5697 H            1 GTP1355   0.0000
    43 H11          4.1972    12.1408    49.3052 H            1 GTP1355   0.0000
    44 H12          3.8530    13.8371    49.2404 H            1 GTP1355   0.0000
@<TRIPOS>BOND
     1    1    2      ar
     2    1    3      ar
     3    1    4      ar
     4    1    5       1
     5    5    6       1
     6    6    7      ar
     7    6    8      ar
     8    6    9       1
     9    9   10       1
    10   10   11      ar
    11   10   12      ar
    12   10   13       1
    13   13   14       1
    14   14   15       1
    15   15   16       1
    16   15   17       1
    17   16   21       1
    18   17   18       1
    19   17   19       1
    20   19   20       1
    21   19   21       1
    22   21   22       1
    23   22   23       1
    24   22   32       1
    25   23   24       2
    26   24   25       1
    27   25   26       1
    28   25   32       2
    29   26   27       2
    30   26   28       1
    31   28   29       1
    32   29   30       1
    33   29   31       2
    34   31   32       1
    35   30   44       1
    36   30   43       1
    37   28   42       1
    38   23   41       1
    39   14   33       1
    40   14   34       1
    41   15   35       1
    42   17   36       1
    43   18   37       1
    44   19   38       1
    45   20   39       1
    46   21   40       1
@<TRIPOS>SUBSTRUCTURE
     1 GTP1355     1 GROUP             4 A     GTP     0 **** GTP A1355
