@<TRIPOS>MOLECULE
3zno_SE5_2_ligand
   28    29     1     0     0
SMALL
NO_CHARGES


@<TRIPOS>ATOM
     1 O1          10.0290    -3.2490   -20.2060 O.co2        1 SE5360   0.0000
     2 C1           9.2820    -3.6620   -19.2930 C.2          1 SE5360   0.0000
     3 O2           9.1390    -3.0390   -18.2190 O.co2        1 SE5360  -1.0000
     4 C2           8.5380    -4.9360   -19.4940 C.2          1 SE5360   0.0000
     5 C3           8.5540    -5.7050   -20.6470 C.2          1 SE5360   0.0000
     6 C4           7.7360    -6.7960   -20.4160 C.2          1 SE5360   0.0000
     7 C5           7.4420    -7.9140   -21.3870 C.3          1 SE5360   0.0000
     8 C6           8.7500    -8.4700   -21.9350 C.3          1 SE5360   0.0000
     9 C7           9.5610    -9.0610   -20.8040 C.ar         1 SE5360   0.0000
    10 C8           8.9220    -9.6980   -19.7460 C.ar         1 SE5360   0.0000
    11 C9          10.9480    -8.9670   -20.8230 C.ar         1 SE5360   0.0000
    12 C10         11.6980    -9.5090   -19.7850 C.ar         1 SE5360   0.0000
    13 C11         11.0580   -10.1450   -18.7280 C.ar         1 SE5360   0.0000
    14 C12          7.2390    -6.6690   -19.1280 C.2          1 SE5360   0.0000
    15 CL1         12.0250   -10.8440   -17.3880 Cl           1 SE5360   0.0000
    16 C13          9.6710   -10.2400   -18.7070 C.ar         1 SE5360   0.0000
    17 N1           7.7420    -5.5340   -18.5940 N.pl3        1 SE5360   0.0000
    18 H1           9.0607    -5.5084   -21.4864 H            1 SE5360   0.0000
    19 H2           6.8874    -7.5627   -22.1414 H            1 SE5360   0.0000
    20 H3           6.9423    -8.6411   -20.9163 H            1 SE5360   0.0000
    21 H4           9.2696    -7.7335   -22.3681 H            1 SE5360   0.0000
    22 H5           8.5529    -9.1806   -22.6104 H            1 SE5360   0.0000
    23 H6           7.9244    -9.7664   -19.7322 H            1 SE5360   0.0000
    24 H7          11.4070    -8.5089   -21.5843 H            1 SE5360   0.0000
    25 H8          12.6956    -9.4413   -19.7991 H            1 SE5360   0.0000
    26 H9           6.6167    -7.3062   -18.6733 H            1 SE5360   0.0000
    27 H10          9.2123   -10.6977   -17.9454 H            1 SE5360   0.0000
    28 H11          7.5512    -5.1934   -17.6734 H            1 SE5360   0.0000
@<TRIPOS>BOND
     1    1    2      ar
     2    2    3      ar
     3    2    4       1
     4    4    5       2
     5    4   17       1
     6    5    6       1
     7    6    7       1
     8    6   14       2
     9    7    8       1
    10    8    9       1
    11    9   10      ar
    12    9   11      ar
    13   10   16      ar
    14   11   12      ar
    15   12   13      ar
    16   13   15       1
    17   13   16      ar
    18   14   17       1
    19   17   28       1
    20    5   18       1
    21    7   19       1
    22    7   20       1
    23    8   21       1
    24    8   22       1
    25   10   23       1
    26   11   24       1
    27   12   25       1
    28   14   26       1
    29   16   27       1
@<TRIPOS>SUBSTRUCTURE
     1 SE5360      1 GROUP             4 B     SE5     0 **** SE5 B 360
