@<TRIPOS>MOLECULE
3oet_NAD_2_ligand
   70    74     1     0     0
SMALL
NO_CHARGES


@<TRIPOS>ATOM
     1 PA         -28.0850    43.2750   -32.0120 P.3          1 NAD379   0.0000
     2 O1A        -29.4860    42.8390   -32.1480 O.co2        1 NAD379   0.0000
     3 O2A        -27.7010    43.4750   -30.6000 O.co2        1 NAD379  -1.0000
     4 O5B        -27.8560    44.6780   -32.7830 O.3          1 NAD379   0.0000
     5 C5B        -28.4070    45.0070   -34.0390 C.3          1 NAD379   0.0000
     6 C4B        -28.4820    46.5320   -34.1230 C.3          1 NAD379   0.0000
     7 O4B        -28.5920    46.9930   -35.4630 O.3          1 NAD379   0.0000
     8 C3B        -29.6940    47.0590   -33.3690 C.3          1 NAD379   0.0000
     9 O3B        -29.2540    48.0310   -32.4440 O.3          1 NAD379   0.0000
    10 C2B        -30.5750    47.6750   -34.4300 C.3          1 NAD379   0.0000
    11 O2B        -31.2070    48.8560   -34.0000 O.3          1 NAD379   0.0000
    12 C1B        -29.5630    48.0330   -35.4810 C.3          1 NAD379   0.0000
    13 N9A        -30.1680    48.0900   -36.8020 N.pl3        1 NAD379   0.0000
    14 C8A        -31.2130    47.3480   -37.2810 C.2          1 NAD379   0.0000
    15 N7A        -31.4390    47.7030   -38.5660 N.2          1 NAD379   0.0000
    16 C5A        -30.5480    48.6600   -38.8980 C.ar         1 NAD379   0.0000
    17 C6A        -30.3410    49.3650   -40.0640 C.ar         1 NAD379   0.0000
    18 N6A        -31.2450    49.2940   -41.0310 N.pl3        1 NAD379   0.0000
    19 N1A        -29.3280    50.3040   -40.0960 N.ar         1 NAD379   0.0000
    20 C2A        -28.5510    50.5640   -38.9790 C.ar         1 NAD379   0.0000
    21 N3A        -28.7660    49.8560   -37.8180 N.ar         1 NAD379   0.0000
    22 C4A        -29.7410    48.9180   -37.7920 C.ar         1 NAD379   0.0000
    23 O3         -27.2190    42.1490   -32.7610 O.3          1 NAD379   0.0000
    24 PN         -25.6300    41.9250   -32.5810 P.3          1 NAD379   0.0000
    25 O1N        -25.4520    40.8310   -31.5800 O.co2        1 NAD379   0.0000
    26 O2N        -24.9290    43.2470   -32.4250 O.co2        1 NAD379  -1.0000
    27 O5D        -25.2440    41.2890   -33.9920 O.3          1 NAD379   0.0000
    28 C5D        -24.7990    42.1100   -35.0330 C.3          1 NAD379   0.0000
    29 C4D        -24.9400    41.2770   -36.2860 C.3          1 NAD379   0.0000
    30 O4D        -23.7560    40.5270   -36.4520 O.3          1 NAD379   0.0000
    31 C3D        -26.0840    40.2850   -36.1910 C.3          1 NAD379   0.0000
    32 O3D        -26.6060    40.2130   -37.4870 O.3          1 NAD379   0.0000
    33 C2D        -25.4220    38.9580   -35.9090 C.3          1 NAD379   0.0000
    34 O2D        -26.0900    37.8870   -36.5380 O.3          1 NAD379   0.0000
    35 C1D        -24.0600    39.1470   -36.5550 C.3          1 NAD379   0.0000
    36 N1N        -23.0400    38.3650   -35.8600 N.ar         1 NAD379   1.0000
    37 C2N        -22.1820    37.6480   -36.6230 C.ar         1 NAD379   0.0000
    38 C3N        -21.1890    36.8980   -36.0230 C.ar         1 NAD379   0.0000
    39 C7N        -20.1490    36.2640   -36.8980 C.2          1 NAD379   0.0000
    40 O7N        -19.6610    34.9990   -36.5200 O.2          1 NAD379   0.0000
    41 N7N        -19.7160    36.9090   -37.9890 N.am         1 NAD379   0.0000
    42 C4N        -21.0840    36.8670   -34.6380 C.ar         1 NAD379   0.0000
    43 C5N        -21.9700    37.6090   -33.8630 C.ar         1 NAD379   0.0000
    44 C6N        -22.9550    38.3700   -34.4880 C.ar         1 NAD379   0.0000
    45 H5B1       -29.3231    44.6150   -34.1232 H            1 NAD379   0.0000
    46 H5B2       -27.8244    44.6530   -34.7707 H            1 NAD379   0.0000
    47 H4B        -27.6549    46.9189   -33.7154 H            1 NAD379   0.0000
    48 H3B        -30.1708    46.3150   -32.9009 H            1 NAD379   0.0000
    49 H5         -28.8041    48.7777   -32.9338 H            1 NAD379   0.0000
    50 H2B        -31.2400    47.0140   -34.7775 H            1 NAD379   0.0000
    51 H7         -30.6254    49.6414   -34.2118 H            1 NAD379   0.0000
    52 H1B        -29.1334    48.9088   -35.2611 H            1 NAD379   0.0000
    53 H8A        -31.7238    46.6589   -36.7671 H            1 NAD379   0.0000
    54 H6A1       -31.1074    49.8004   -41.8822 H            1 NAD379   0.0000
    55 H6A2       -32.0645    48.7340   -40.9092 H            1 NAD379   0.0000
    56 H2A        -27.8369    51.2631   -39.0158 H            1 NAD379   0.0000
    57 H5D1       -23.8438    42.3695   -34.8906 H            1 NAD379   0.0000
    58 H5D2       -25.3626    42.9338   -35.0948 H            1 NAD379   0.0000
    59 H4D        -25.0753    41.8748   -37.0762 H            1 NAD379   0.0000
    60 H3D        -26.7670    40.5371   -35.5055 H            1 NAD379   0.0000
    61 H17        -26.9238    41.1182   -37.7691 H            1 NAD379   0.0000
    62 H2D        -25.3354    38.8005   -34.9253 H            1 NAD379   0.0000
    63 H19        -25.6201    37.0302   -36.3256 H            1 NAD379   0.0000
    64 H1D        -24.0990    38.8776   -37.5172 H            1 NAD379   0.0000
    65 H2N        -22.2668    37.6612   -37.6193 H            1 NAD379   0.0000
    66 H7N1       -19.0227    36.4901   -38.5753 H            1 NAD379   0.0000
    67 H7N2       -20.0860    37.8095   -38.2173 H            1 NAD379   0.0000
    68 H4N        -20.3751    36.3141   -34.2002 H            1 NAD379   0.0000
    69 H5N        -21.9001    37.5960   -32.8655 H            1 NAD379   0.0000
    70 H6N        -23.5938    38.9144   -33.9443 H            1 NAD379   0.0000
@<TRIPOS>BOND
     1    1    2      ar
     2    1    3      ar
     3    1    4       1
     4    1   23       1
     5    4    5       1
     6    5    6       1
     7    6    7       1
     8    6    8       1
     9    7   12       1
    10    8    9       1
    11    8   10       1
    12   10   11       1
    13   10   12       1
    14   12   13       1
    15   13   14       1
    16   13   22       1
    17   14   15       2
    18   15   16       1
    19   16   17      ar
    20   16   22      ar
    21   17   18       1
    22   17   19      ar
    23   19   20      ar
    24   20   21      ar
    25   21   22      ar
    26   23   24       1
    27   24   25      ar
    28   24   26      ar
    29   24   27       1
    30   27   28       1
    31   28   29       1
    32   29   30       1
    33   29   31       1
    34   30   35       1
    35   31   32       1
    36   31   33       1
    37   33   34       1
    38   33   35       1
    39   35   36       1
    40   36   37      ar
    41   36   44      ar
    42   37   38      ar
    43   38   39       1
    44   38   42      ar
    45   39   40       2
    46   39   41      am
    47   42   43      ar
    48   43   44      ar
    49   44   70       1
    50    5   45       1
    51    5   46       1
    52    6   47       1
    53    8   48       1
    54    9   49       1
    55   10   50       1
    56   11   51       1
    57   12   52       1
    58   14   53       1
    59   18   54       1
    60   18   55       1
    61   20   56       1
    62   43   69       1
    63   28   57       1
    64   28   58       1
    65   29   59       1
    66   31   60       1
    67   32   61       1
    68   33   62       1
    69   34   63       1
    70   35   64       1
    71   37   65       1
    72   41   66       1
    73   41   67       1
    74   42   68       1
@<TRIPOS>SUBSTRUCTURE
     1 NAD379      1 GROUP             4 B     NAD     0 **** NAD B 379
