@<TRIPOS>MOLECULE
2ozu_ACO_1_ligand
   85    87     1     0     0
SMALL
NO_CHARGES


@<TRIPOS>ATOM
     1 N1A         -9.3480     3.1880    32.7170 N.ar         1 ACO850   0.0000
     2 C2A        -10.2690     3.7190    33.5570 C.ar         1 ACO850   0.0000
     3 N3A         -9.9390     4.4570    34.6290 N.ar         1 ACO850   0.0000
     4 C4A         -8.6300     4.7040    34.9280 C.ar         1 ACO850   0.0000
     5 C5A         -7.5650     4.1660    34.0670 C.ar         1 ACO850   0.0000
     6 C6A         -8.0040     3.3490    32.9060 C.ar         1 ACO850   0.0000
     7 N6A         -7.0920     2.8110    32.0640 N.pl3        1 ACO850   0.0000
     8 N7A         -6.3880     4.5890    34.5830 N.2          1 ACO850   0.0000
     9 C8A         -6.6600     5.3270    35.6890 C.2          1 ACO850   0.0000
    10 N9A         -7.9900     5.3990    35.8790 N.pl3        1 ACO850   0.0000
    11 C1B         -8.6890     6.1170    36.9620 C.3          1 ACO850   0.0000
    12 C2B         -8.2860     5.5550    38.3250 C.3          1 ACO850   0.0000
    13 O2B         -8.9510     4.3080    38.6580 O.3          1 ACO850   0.0000
    14 C3B         -8.6530     6.7410    39.2070 C.3          1 ACO850   0.0000
    15 O3B        -10.0720     6.7100    39.4370 O.3          1 ACO850   0.0000
    16 P3B        -10.6970     6.1970    40.8290 P.3          1 ACO850   0.0000
    17 O7A        -10.0900     7.0560    41.9260 O.co2        1 ACO850   0.0000
    18 O8A        -12.1840     6.3740    40.6320 O.co2        1 ACO850  -1.0000
    19 O9A        -10.2440     4.7540    40.8370 O.co2        1 ACO850  -1.0000
    20 C4B         -8.3180     7.9710    38.3550 C.3          1 ACO850   0.0000
    21 O4B         -8.3580     7.5120    36.9880 O.3          1 ACO850   0.0000
    22 C5B         -6.9530     8.6080    38.6600 C.3          1 ACO850   0.0000
    23 O5B         -5.9690     7.5700    38.7480 O.3          1 ACO850   0.0000
    24 P1A         -4.4440     7.7650    39.1800 P.3          1 ACO850   0.0000
    25 O1A         -4.3780     8.8780    40.2060 O.co2        1 ACO850   0.0000
    26 O2A         -3.8190     6.4530    39.5750 O.co2        1 ACO850  -1.0000
    27 O3A         -3.8220     8.3540    37.8100 O.3          1 ACO850   0.0000
    28 P2A         -2.8170     7.7190    36.7210 P.3          1 ACO850   0.0000
    29 O4A         -1.4480     7.7480    37.3270 O.co2        1 ACO850   0.0000
    30 O5A         -3.3910     6.4930    36.0930 O.co2        1 ACO850  -1.0000
    31 O6A         -2.8600     8.8990    35.6110 O.3          1 ACO850   0.0000
    32 CBP         -3.5850     9.9060    33.5630 C.3          1 ACO850   0.0000
    33 CCP         -4.0100     9.4060    34.9400 C.3          1 ACO850   0.0000
    34 CDP         -2.5100    10.9950    33.7050 C.3          1 ACO850   0.0000
    35 CEP         -4.7890    10.5420    32.8600 C.3          1 ACO850   0.0000
    36 CAP         -3.0410     8.6890    32.7580 C.3          1 ACO850   0.0000
    37 OAP         -4.0990     7.7230    32.5170 O.3          1 ACO850   0.0000
    38 C9P         -2.3590     9.0070    31.4290 C.2          1 ACO850   0.0000
    39 O9P         -1.2130     9.4350    31.3710 O.2          1 ACO850   0.0000
    40 N8P         -3.0540     8.7760    30.3240 N.am         1 ACO850   0.0000
    41 C7P         -2.5010     9.0260    29.0060 C.3          1 ACO850   0.0000
    42 C6P         -2.3170    10.5080    28.6780 C.3          1 ACO850   0.0000
    43 C5P         -3.6280    11.2620    28.8210 C.2          1 ACO850   0.0000
    44 O5P         -4.6130    10.8670    28.2140 O.2          1 ACO850   0.0000
    45 N4P         -3.6190    12.3420    29.6170 N.am         1 ACO850   0.0000
    46 C3P         -4.8000    13.1750    29.8390 C.3          1 ACO850   0.0000
    47 C2P         -4.9400    14.2240    28.7350 C.3          1 ACO850   0.0000
    48 S1P         -6.2080    15.3900    29.1760 S.3          1 ACO850   0.0000
    49 C           -5.4580    16.8830    29.4540 C.2          1 ACO850   0.0000
    50 O           -4.7060    17.2380    28.6860 O.2          1 ACO850   0.0000
    51 CH3         -5.6570    17.8240    30.5880 C.3          1 ACO850   0.0000
    52 H2A        -11.2374     3.5539    33.3703 H            1 ACO850   0.0000
    53 H6A1        -6.1156     2.9477    32.2309 H            1 ACO850   0.0000
    54 H6A2        -7.3943     2.2766    31.2747 H            1 ACO850   0.0000
    55 H8A         -5.9728     5.7545    36.2764 H            1 ACO850   0.0000
    56 H1B         -9.6765     6.0145    36.8419 H            1 ACO850   0.0000
    57 H2B         -7.2956     5.4189    38.3478 H            1 ACO850   0.0000
    58 H7          -9.4810     4.4268    39.4976 H            1 ACO850   0.0000
    59 H3B         -8.1398     6.7356    40.0652 H            1 ACO850   0.0000
    60 H4B         -9.0320     8.6588    38.4859 H            1 ACO850   0.0000
    61 H5B1        -6.9990     9.1021    39.5282 H            1 ACO850   0.0000
    62 H5B2        -6.7072     9.2431    37.9277 H            1 ACO850   0.0000
    63 HCP1        -4.4027    10.1601    35.4664 H            1 ACO850   0.0000
    64 HCP2        -4.6900     8.6796    34.8401 H            1 ACO850   0.0000
    65 HDP1        -2.2385    11.3157    32.7976 H            1 ACO850   0.0000
    66 HDP2        -2.8785    11.7604    34.2326 H            1 ACO850   0.0000
    67 HDP3        -1.7134    10.6175    34.1772 H            1 ACO850   0.0000
    68 HEP1        -4.5124    10.8705    31.9569 H            1 ACO850   0.0000
    69 HEP2        -5.5142     9.8609    32.7592 H            1 ACO850   0.0000
    70 HEP3        -5.1260    11.3096    33.4051 H            1 ACO850   0.0000
    71 HAP         -2.3600     8.2382    33.3351 H            1 ACO850   0.0000
    72 H21         -3.8505     6.8466    32.9296 H            1 ACO850   0.0000
    73 H8P         -3.9852     8.4196    30.4009 H            1 ACO850   0.0000
    74 H7P1        -3.1169     8.6279    28.3262 H            1 ACO850   0.0000
    75 H7P2        -1.6084     8.5786    28.9497 H            1 ACO850   0.0000
    76 H6P1        -1.9892    10.5969    27.7375 H            1 ACO850   0.0000
    77 H6P2        -1.6435    10.9007    29.3043 H            1 ACO850   0.0000
    78 H4P         -2.7669    12.5881    30.0789 H            1 ACO850   0.0000
    79 H3P1        -4.7139    13.6373    30.7215 H            1 ACO850   0.0000
    80 H3P2        -5.6142    12.5945    29.8448 H            1 ACO850   0.0000
    81 H2P1        -5.1864    13.7732    27.8771 H            1 ACO850   0.0000
    82 H2P2        -4.0708    14.7051    28.6211 H            1 ACO850   0.0000
    83 HH31        -5.0668    18.6221    30.4664 H            1 ACO850   0.0000
    84 HH32        -6.6127    18.1171    30.6142 H            1 ACO850   0.0000
    85 HH33        -5.4253    17.3657    31.4461 H            1 ACO850   0.0000
@<TRIPOS>BOND
     1    1    2      ar
     2    1    6      ar
     3    2    3      ar
     4    3    4      ar
     5    4    5      ar
     6    4   10       1
     7    5    6      ar
     8    5    8       1
     9    6    7       1
    10    8    9       2
    11    9   10       1
    12   10   11       1
    13   11   12       1
    14   11   21       1
    15   12   13       1
    16   12   14       1
    17   14   15       1
    18   14   20       1
    19   15   16       1
    20   16   17      ar
    21   16   18      ar
    22   16   19      ar
    23   20   21       1
    24   20   22       1
    25   22   23       1
    26   23   24       1
    27   24   25      ar
    28   24   26      ar
    29   24   27       1
    30   27   28       1
    31   28   29      ar
    32   28   30      ar
    33   28   31       1
    34   31   33       1
    35   32   33       1
    36   32   34       1
    37   32   35       1
    38   32   36       1
    39   36   37       1
    40   36   38       1
    41   38   39       2
    42   38   40      am
    43   40   41       1
    44   41   42       1
    45   42   43       1
    46   43   44       2
    47   43   45      am
    48   45   46       1
    49   46   47       1
    50   47   48       1
    51   48   49       1
    52   49   50       2
    53   49   51       1
    54    2   52       1
    55    7   53       1
    56    7   54       1
    57    9   55       1
    58   11   56       1
    59   12   57       1
    60   13   58       1
    61   14   59       1
    62   51   85       1
    63   51   84       1
    64   20   60       1
    65   22   61       1
    66   22   62       1
    67   51   83       1
    68   47   82       1
    69   33   63       1
    70   33   64       1
    71   34   65       1
    72   34   66       1
    73   34   67       1
    74   35   68       1
    75   35   69       1
    76   35   70       1
    77   36   71       1
    78   37   72       1
    79   40   73       1
    80   41   74       1
    81   41   75       1
    82   42   76       1
    83   42   77       1
    84   45   78       1
    85   46   79       1
    86   46   80       1
    87   47   81       1
@<TRIPOS>SUBSTRUCTURE
     1 ACO850      1 GROUP             4 A     ACO     0 **** ACO A 850
