@<TRIPOS>MOLECULE
1ep1_FMN_1_ligand
   48    50     1     0     0
SMALL
NO_CHARGES


@<TRIPOS>ATOM
     1 N1          40.0310    34.9880    28.2960 N.2          1 FMN501   0.0000
     2 C2          39.2640    35.7100    29.1740 C.2          1 FMN501   0.0000
     3 O2          39.5410    36.8620    29.4810 O.2          1 FMN501   0.0000
     4 N3          38.2470    34.9830    29.7530 N.pl3        1 FMN501   0.0000
     5 C4          38.0020    33.6610    29.5540 C.2          1 FMN501   0.0000
     6 O4          37.2300    33.1110    30.3300 O.2          1 FMN501   0.0000
     7 C4A         38.7350    33.0950    28.4290 C.2          1 FMN501   0.0000
     8 N5          38.4170    31.7710    28.0790 N.2          1 FMN501   0.0000
     9 C5A         39.2390    31.0640    27.2320 C.ar         1 FMN501   0.0000
    10 C6          38.9690    29.7500    26.9570 C.ar         1 FMN501   0.0000
    11 C7          39.8680    29.0140    26.2100 C.ar         1 FMN501   0.0000
    12 C7M         39.6390    27.5080    26.0710 C.3          1 FMN501   0.0000
    13 C8          40.9780    29.6210    25.6200 C.ar         1 FMN501   0.0000
    14 C8M         42.0180    28.8550    24.7980 C.3          1 FMN501   0.0000
    15 C9          41.1580    30.9830    25.7880 C.ar         1 FMN501   0.0000
    16 C9A         40.3410    31.6950    26.6520 C.ar         1 FMN501   0.0000
    17 N10         40.6580    33.0030    27.0230 N.pl3        1 FMN501   0.0000
    18 C10         39.8350    33.7150    27.8420 C.2          1 FMN501   0.0000
    19 C1'         41.5410    33.6600    26.2840 C.3          1 FMN501   0.0000
    20 C2'         42.8010    33.9080    27.0030 C.2          1 FMN501   0.0000
    21 O2'         42.9460    33.5480    28.3060 O.2          1 FMN501   0.0000
    22 C3'         44.1170    34.2350    26.4270 C.3          1 FMN501   0.0000
    23 O3'         44.0280    35.6080    26.1670 O.3          1 FMN501   0.0000
    24 C4'         44.6960    33.4580    25.3450 C.3          1 FMN501   0.0000
    25 O4'         43.9270    32.6110    24.5790 O.3          1 FMN501   0.0000
    26 C5'         45.8180    33.9970    24.5970 C.3          1 FMN501   0.0000
    27 O5'         46.9130    33.2370    25.1720 O.3          1 FMN501   0.0000
    28 P           47.3070    31.6910    24.7680 P.3          1 FMN501   0.0000
    29 O1P         48.4320    31.3990    25.7240 O.co2        1 FMN501   0.0000
    30 O2P         46.0460    30.9310    24.9460 O.co2        1 FMN501  -1.0000
    31 O3P         47.7840    31.7610    23.3420 O.co2        1 FMN501  -1.0000
    32 H1          37.6347    35.4713    30.3749 H            1 FMN501   0.0000
    33 H2          38.1280    29.3268    27.2942 H            1 FMN501   0.0000
    34 H7M1        40.3634    27.1113    25.5072 H            1 FMN501   0.0000
    35 H7M2        39.6514    27.0840    26.9766 H            1 FMN501   0.0000
    36 H7M3        38.7525    27.3442    25.6383 H            1 FMN501   0.0000
    37 H8M1        42.7205    29.4892    24.4750 H            1 FMN501   0.0000
    38 H8M2        42.4412    28.1511    25.3685 H            1 FMN501   0.0000
    39 H8M3        41.5716    28.4244    24.0136 H            1 FMN501   0.0000
    40 H9          41.8808    31.4555    25.2837 H            1 FMN501   0.0000
    41 H1'1        41.1455    34.5387    26.0167 H            1 FMN501   0.0000
    42 H1'2        41.7392    33.1208    25.4654 H            1 FMN501   0.0000
    43 H3'         44.7637    34.1524    27.1853 H            1 FMN501   0.0000
    44 H13         44.8873    35.9281    25.7681 H            1 FMN501   0.0000
    45 H4'         45.1849    32.7754    25.8882 H            1 FMN501   0.0000
    46 H15         44.4891    31.8485    24.2587 H            1 FMN501   0.0000
    47 H5'1        45.9282    34.9785    24.7537 H            1 FMN501   0.0000
    48 H5'2        45.7244    33.8244    23.6165 H            1 FMN501   0.0000
@<TRIPOS>BOND
     1    1    2       1
     2    1   18       2
     3    2    3       2
     4    2    4       1
     5    4    5       1
     6    5    6       2
     7    5    7       1
     8    7    8       2
     9    7   18       1
    10    8    9       1
    11    9   10      ar
    12    9   16      ar
    13   10   11      ar
    14   11   12       1
    15   11   13      ar
    16   13   14       1
    17   13   15      ar
    18   15   16      ar
    19   16   17       1
    20   17   18       1
    21   17   19       1
    22   19   20       1
    23   20   21       2
    24   20   22       1
    25   22   23       1
    26   22   24       1
    27   24   25       1
    28   24   26       1
    29   26   27       1
    30   27   28       1
    31   28   29      ar
    32   28   30      ar
    33   28   31      ar
    34    4   32       1
    35   10   33       1
    36   12   34       1
    37   12   35       1
    38   12   36       1
    39   14   37       1
    40   14   38       1
    41   14   39       1
    42   15   40       1
    43   19   41       1
    44   19   42       1
    45   22   43       1
    46   23   44       1
    47   24   45       1
    48   25   46       1
    49   26   47       1
    50   26   48       1
@<TRIPOS>SUBSTRUCTURE
     1 FMN501      1 GROUP             4 A     FMN     0 **** FMN A 501
