@<TRIPOS>MOLECULE
./coach420/1znz/ligand.pdb
 28 30 0 0 0
SMALL
GASTEIGER

@<TRIPOS>ATOM
      1  PB        27.8460    9.3610   34.2250 P.3   300  GDP300      0.5373
      2  O1B       27.1940   10.7040   34.3070 O.3   300  GDP300     -0.1143
      3  O2B       27.1100    8.5050   33.1770 O.2   300  GDP300     -0.2221
      4  O3B       27.7550    8.5500   35.5560 O.3   300  GDP300     -0.1143
      5  O3A       29.4320    9.5670   33.8730 O.3   300  GDP300     -0.2261
      6  PA        29.9760    9.8160   32.3440 P.3   300  GDP300      0.2231
      7  O1A       30.9760    8.7070   32.1310 O.2   300  GDP300     -0.5169
      8  O2A       30.5390   11.2890   32.2670 O.3   300  GDP300     -0.4370
      9  O5'       28.5790    9.6710   31.4030 O.3   300  GDP300     -0.3111
     10  C5'       27.7170   10.7940   31.0600 C.3   300  GDP300      0.1813
     11  C4'       26.1820   10.5830   30.8500 C.3   300  GDP300      0.1801
     12  O4'       25.8370    9.3620   30.1810 O.3   300  GDP300     -0.3306
     13  C3'       25.3080   10.6220   32.1390 C.3   300  GDP300      0.2161
     14  O3'       24.7320   11.8670   32.4520 O.3   300  GDP300     -0.2175
     15  C2'       24.2080    9.5890   31.9810 C.3   300  GDP300      0.2337
     16  O2'       22.8980   10.1230   32.0700 O.3   300  GDP300     -0.2155
     17  C1'       24.5280    8.9640   30.6210 C.3   300  GDP300      0.2409
     18  N9        24.4590    7.5090   30.8150 N.ar  300  GDP300     -0.2693
     19  C8        25.4240    6.6930   31.3960 C.ar  300  GDP300      0.1817
     20  N7        24.9510    5.4240   31.3800 N.ar  300  GDP300     -0.2173
     21  C5        23.7050    5.4260   30.7880 C.ar  300  GDP300      0.1748
     22  C6        22.7570    4.4190   30.5050 C.ar  300  GDP300      0.3023
     23  O6        22.9620    3.2290   30.7650 O.2   300  GDP300     -0.2633
     24  N1        21.5620    4.7560   29.8780 N.ar  300  GDP300     -0.1709
     25  C2        21.2810    6.0610   29.5490 C.ar  300  GDP300      0.2606
     26  N2        20.2310    6.2650   28.8100 N.pl3 300  GDP300     -0.0859
     27  N3        22.1850    7.0660   29.8270 N.ar  300  GDP300     -0.1918
     28  C4        23.3870    6.7440   30.4260 C.ar  300  GDP300      0.1723
@<TRIPOS>BOND
     1     1     3    2
     2     1     5    1
     3     1     2    1
     4     1     4    1
     5     5     6    1
     6     6     9    1
     7     6     7    2
     8     6     8    1
     9     9    10    1
    10    10    11    1
    11    11    12    1
    12    11    13    1
    13    12    17    1
    14    13    15    1
    15    13    14    1
    16    15    17    1
    17    15    16    1
    18    17    18    1
    19    18    28   ar
    20    18    19   ar
    21    19    20   ar
    22    20    21   ar
    23    21    28   ar
    24    21    22   ar
    25    22    24   ar
    26    22    23    2
    27    24    25   ar
    28    25    26    1
    29    25    27   ar
    30    27    28   ar
