@<TRIPOS>MOLECULE
3doc_NAD_2_ligand
   70    74     1     0     0
SMALL
NO_CHARGES


@<TRIPOS>ATOM
     1 PA           4.6410     8.8140    26.0170 P.3          1 NAD901   0.0000
     2 O1A          6.0820     8.9800    25.7510 O.co2        1 NAD901   0.0000
     3 O2A          4.0160     7.9050    25.0170 O.co2        1 NAD901  -1.0000
     4 O5B          3.9090    10.2480    26.0210 O.3          1 NAD901   0.0000
     5 C5B          4.5640    11.4510    26.3330 C.3          1 NAD901   0.0000
     6 C4B          4.1100    12.4440    25.2650 C.3          1 NAD901   0.0000
     7 O4B          4.2440    13.7790    25.7270 O.3          1 NAD901   0.0000
     8 C3B          4.8980    12.3140    23.9630 C.3          1 NAD901   0.0000
     9 O3B          3.9760    12.2780    22.8930 O.3          1 NAD901   0.0000
    10 C2B          5.7200    13.5930    23.9080 C.3          1 NAD901   0.0000
    11 O2B          5.8940    14.0500    22.5860 O.3          1 NAD901   0.0000
    12 C1B          4.8830    14.5680    24.7360 C.3          1 NAD901   0.0000
    13 N9A          5.7050    15.6160    25.3680 N.pl3        1 NAD901   0.0000
    14 C8A          6.9810    15.4780    25.8530 C.2          1 NAD901   0.0000
    15 N7A          7.3560    16.6680    26.3750 N.2          1 NAD901   0.0000
    16 C5A          6.3490    17.5640    26.2220 C.ar         1 NAD901   0.0000
    17 C6A          6.2230    18.9080    26.5660 C.ar         1 NAD901   0.0000
    18 N6A          7.2960    19.6010    26.9330 N.pl3        1 NAD901   0.0000
    19 N1A          5.0500    19.5780    26.2840 N.ar         1 NAD901   0.0000
    20 C2A          4.0230    18.8920    25.6620 C.ar         1 NAD901   0.0000
    21 N3A          4.1640    17.5560    25.3340 N.ar         1 NAD901   0.0000
    22 C4A          5.3050    16.9060    25.6030 C.ar         1 NAD901   0.0000
    23 O3           4.4120     8.3180    27.5390 O.3          1 NAD901   0.0000
    24 PN           3.0830     7.5930    28.1110 P.3          1 NAD901   0.0000
    25 O1N          3.3100     6.1390    28.0040 O.co2        1 NAD901   0.0000
    26 O2N          1.8390     8.1890    27.5490 O.co2        1 NAD901  -1.0000
    27 O5D          3.0530     8.0300    29.6650 O.3          1 NAD901   0.0000
    28 C5D          2.8760     9.3980    29.9980 C.3          1 NAD901   0.0000
    29 C4D          2.6400     9.5640    31.4980 C.3          1 NAD901   0.0000
    30 O4D          1.6510     8.6470    31.9340 O.3          1 NAD901   0.0000
    31 C3D          3.8950     9.2350    32.2860 C.3          1 NAD901   0.0000
    32 O3D          3.9150    10.0520    33.4340 O.3          1 NAD901   0.0000
    33 C2D          3.6860     7.7700    32.6570 C.3          1 NAD901   0.0000
    34 O2D          4.3870     7.3610    33.8010 O.3          1 NAD901   0.0000
    35 C1D          2.1900     7.7490    32.8940 C.3          1 NAD901   0.0000
    36 N1N          1.5940     6.4160    32.7140 N.ar         1 NAD901   1.0000
    37 C2N          1.9340     5.6550    31.6420 C.ar         1 NAD901   0.0000
    38 C3N          1.3290     4.4050    31.5070 C.ar         1 NAD901   0.0000
    39 C7N          1.5840     3.4950    30.3510 C.2          1 NAD901   0.0000
    40 O7N          1.1150     2.1790    30.4940 O.2          1 NAD901   0.0000
    41 N7N          2.1950     3.9350    29.2570 N.am         1 NAD901   0.0000
    42 C4N          0.3990     3.9540    32.4300 C.ar         1 NAD901   0.0000
    43 C5N          0.0570     4.7380    33.5180 C.ar         1 NAD901   0.0000
    44 C6N          0.6730     5.9740    33.6300 C.ar         1 NAD901   0.0000
    45 H5B1         5.5560    11.3290    26.2992 H            1 NAD901   0.0000
    46 H5B2         4.2981    11.7691    27.2430 H            1 NAD901   0.0000
    47 H4B          3.1445    12.2745    25.0672 H            1 NAD901   0.0000
    48 H3B          5.4832    11.5031    23.9690 H            1 NAD901   0.0000
    49 H5           3.4386    13.1213    22.8875 H            1 NAD901   0.0000
    50 H2B          6.6094    13.4490    24.3419 H            1 NAD901   0.0000
    51 H7           5.1458    14.6685    22.3459 H            1 NAD901   0.0000
    52 H1B          4.1918    14.9935    24.1518 H            1 NAD901   0.0000
    53 H8A          7.5350    14.6459    25.8254 H            1 NAD901   0.0000
    54 H6A1         7.2075    20.5659    27.1803 H            1 NAD901   0.0000
    55 H6A2         8.1918    19.1575    26.9618 H            1 NAD901   0.0000
    56 H2A          3.1696    19.3669    25.4472 H            1 NAD901   0.0000
    57 H5D1         2.0867     9.7573    29.5000 H            1 NAD901   0.0000
    58 H5D2         3.6955     9.9079    29.7365 H            1 NAD901   0.0000
    59 H4D          2.3484    10.4998    31.6959 H            1 NAD901   0.0000
    60 H3D          4.7187     9.3594    31.7328 H            1 NAD901   0.0000
    61 H17          4.7350     9.8528    33.9706 H            1 NAD901   0.0000
    62 H2D          3.9196     7.1825    31.8823 H            1 NAD901   0.0000
    63 H19          3.7393     7.0381    34.4911 H            1 NAD901   0.0000
    64 H1D          1.9915     8.0837    33.8152 H            1 NAD901   0.0000
    65 H2N          2.5983     5.9808    30.9693 H            1 NAD901   0.0000
    66 H7N1         2.3585     3.3131    28.4912 H            1 NAD901   0.0000
    67 H7N2         2.4916     4.8883    29.1990 H            1 NAD901   0.0000
    68 H4N         -0.0272     3.0575    32.3093 H            1 NAD901   0.0000
    69 H5N         -0.6080     4.4250    34.1961 H            1 NAD901   0.0000
    70 H6N          0.4388     6.5630    34.4034 H            1 NAD901   0.0000
@<TRIPOS>BOND
     1    1    2      ar
     2    1    3      ar
     3    1    4       1
     4    1   23       1
     5    4    5       1
     6    5    6       1
     7    6    7       1
     8    6    8       1
     9    7   12       1
    10    8    9       1
    11    8   10       1
    12   10   11       1
    13   10   12       1
    14   12   13       1
    15   13   14       1
    16   13   22       1
    17   14   15       2
    18   15   16       1
    19   16   17      ar
    20   16   22      ar
    21   17   18       1
    22   17   19      ar
    23   19   20      ar
    24   20   21      ar
    25   21   22      ar
    26   23   24       1
    27   24   25      ar
    28   24   26      ar
    29   24   27       1
    30   27   28       1
    31   28   29       1
    32   29   30       1
    33   29   31       1
    34   30   35       1
    35   31   32       1
    36   31   33       1
    37   33   34       1
    38   33   35       1
    39   35   36       1
    40   36   37      ar
    41   36   44      ar
    42   37   38      ar
    43   38   39       1
    44   38   42      ar
    45   39   40       2
    46   39   41      am
    47   42   43      ar
    48   43   44      ar
    49   44   70       1
    50    5   45       1
    51    5   46       1
    52    6   47       1
    53    8   48       1
    54    9   49       1
    55   10   50       1
    56   11   51       1
    57   12   52       1
    58   14   53       1
    59   18   54       1
    60   18   55       1
    61   20   56       1
    62   43   69       1
    63   28   57       1
    64   28   58       1
    65   29   59       1
    66   31   60       1
    67   32   61       1
    68   33   62       1
    69   34   63       1
    70   35   64       1
    71   37   65       1
    72   41   66       1
    73   41   67       1
    74   42   68       1
@<TRIPOS>SUBSTRUCTURE
     1 NAD901      1 GROUP             4 B     NAD     0 **** NAD B 901
