@<TRIPOS>MOLECULE
3vs1_VSA_2_ligand
   55    59     1     0     0
SMALL
NO_CHARGES


@<TRIPOS>ATOM
     1 CAP         13.7440     8.5290    77.6810 C.3          1 VSA602   0.0000
     2 CAN         13.5750     9.7570    76.7950 C.3          1 VSA602   0.0000
     3 CAO         14.5270     9.6110    75.6140 C.3          1 VSA602   0.0000
     4 CAQ         15.1010     8.2020    75.6700 C.3          1 VSA602   0.0000
     5 CBD         14.7450     7.5900    77.0200 C.3          1 VSA602   0.0000
     6 NBE         14.0790     6.2870    76.7990 N.pl3        1 VSA602   0.0000
     7 CAM         12.7840     6.1420    76.5250 C.2          1 VSA602   0.0000
     8 C4          14.6480     5.0810    76.8560 C.ar         1 VSA602   0.0000
     9 N3          15.9270     4.7230    77.0970 N.ar         1 VSA602   0.0000
    10 C2          16.2700     3.4330    77.0890 C.ar         1 VSA602   0.0000
    11 N1          15.3710     2.4740    76.8400 N.ar         1 VSA602   0.0000
    12 C6          14.0790     2.7760    76.5910 C.ar         1 VSA602   0.0000
    13 NAA         13.2080     1.7680    76.3470 N.pl3        1 VSA602   0.0000
    14 C5          13.6840     4.1090    76.5940 C.ar         1 VSA602   0.0000
    15 CBA         12.4920     4.7980    76.3800 C.2          1 VSA602   0.0000
    16 CAY         11.1010     4.3610    76.0760 C.ar         1 VSA602   0.0000
    17 CAK         10.5440     3.1410    76.4460 C.ar         1 VSA602   0.0000
    18 CAI          9.2170     2.8520    76.1230 C.ar         1 VSA602   0.0000
    19 CAJ         10.3220     5.3000    75.4260 C.ar         1 VSA602   0.0000
    20 CAH          9.0100     5.0160    75.1060 C.ar         1 VSA602   0.0000
    21 CAX          8.4500     3.7980    75.4470 C.ar         1 VSA602   0.0000
    22 NAU          7.1070     3.6470    75.0760 N.2          1 VSA602   0.0000
    23 CAV          6.2430     2.6690    75.3330 C.2          1 VSA602   0.0000
    24 OAB          6.5180     1.6650    75.9680 O.3          1 VSA602   0.0000
    25 NAT          5.0360     2.9040    74.8230 N.pl3        1 VSA602   0.0000
    26 CAW          3.9150     2.0710    74.9160 C.ar         1 VSA602   0.0000
    27 CAF          3.9780     0.7090    74.6490 C.ar         1 VSA602   0.0000
    28 CAD          2.8240    -0.0610    74.7450 C.ar         1 VSA602   0.0000
    29 CAC          1.6140     0.5280    75.0940 C.ar         1 VSA602   0.0000
    30 CAE          1.5510     1.8910    75.3500 C.ar         1 VSA602   0.0000
    31 CAG          2.7020     2.6600    75.2530 C.ar         1 VSA602   0.0000
    32 HAP1        12.8644     8.0649    77.7856 H            1 VSA602   0.0000
    33 HAP2        14.0838     8.8058    78.5798 H            1 VSA602   0.0000
    34 HAN1        13.7981    10.5833    77.3121 H            1 VSA602   0.0000
    35 HAN2        12.6319     9.8133    76.4673 H            1 VSA602   0.0000
    36 HAO1        15.2635    10.2840    75.6824 H            1 VSA602   0.0000
    37 HAO2        14.0315     9.7452    74.7558 H            1 VSA602   0.0000
    38 HAQ1        16.0951     8.2381    75.5673 H            1 VSA602   0.0000
    39 HAQ2        14.7098     7.6486    74.9347 H            1 VSA602   0.0000
    40 HBD         15.5607     7.4814    77.5882 H            1 VSA602   0.0000
    41 HAM         12.1249     6.8890    76.4376 H            1 VSA602   0.0000
    42 H11         17.2192     3.1779    77.2731 H            1 VSA602   0.0000
    43 HAA1        12.2469     1.9718    76.1605 H            1 VSA602   0.0000
    44 HAA2        13.5260     0.8199    76.3534 H            1 VSA602   0.0000
    45 HAK         11.0945     2.4707    76.9436 H            1 VSA602   0.0000
    46 HAI          8.8190     1.9701    76.3757 H            1 VSA602   0.0000
    47 HAJ         10.7112     6.1895    75.1865 H            1 VSA602   0.0000
    48 HAH          8.4592     5.6968    74.6233 H            1 VSA602   0.0000
    49 HAT          4.9184     3.7621    74.3231 H            1 VSA602   0.0000
    50 HAF          4.8462     0.2858    74.3899 H            1 VSA602   0.0000
    51 HAD          2.8647    -1.0433    74.5621 H            1 VSA602   0.0000
    52 HAC          0.7876    -0.0311    75.1607 H            1 VSA602   0.0000
    53 HAE          0.6817     2.3159    75.6027 H            1 VSA602   0.0000
    54 HAG          2.6585     3.6439    75.4266 H            1 VSA602   0.0000
    55 HAB          5.8201     0.9664    76.1258 H            1 VSA602   0.0000
@<TRIPOS>BOND
     1    1    2       1
     2    1    5       1
     3    2    3       1
     4    3    4       1
     5    4    5       1
     6    5    6       1
     7    6    7       1
     8    6    8       1
     9    7   15       2
    10    8    9      ar
    11    8   14      ar
    12    9   10      ar
    13   10   11      ar
    14   11   12      ar
    15   12   13       1
    16   12   14      ar
    17   14   15       1
    18   15   16       1
    19   16   17      ar
    20   16   19      ar
    21   17   18      ar
    22   18   21      ar
    23   19   20      ar
    24   20   21      ar
    25   21   22       1
    26   22   23       2
    27   23   24       1
    28   23   25       1
    29   25   26       1
    30   26   27      ar
    31   26   31      ar
    32   27   28      ar
    33   28   29      ar
    34   29   30      ar
    35   30   31      ar
    36    1   32       1
    37    1   33       1
    38    2   34       1
    39    2   35       1
    40    3   36       1
    41    3   37       1
    42    4   38       1
    43    4   39       1
    44    5   40       1
    45    7   41       1
    46   10   42       1
    47   13   43       1
    48   13   44       1
    49   17   45       1
    50   18   46       1
    51   19   47       1
    52   20   48       1
    53   31   54       1
    54   25   49       1
    55   27   50       1
    56   28   51       1
    57   29   52       1
    58   30   53       1
    59   24   55       1
@<TRIPOS>SUBSTRUCTURE
     1 VSA602      1 GROUP             4 B     VSA     0 **** VSA B 602
