@<TRIPOS>MOLECULE
1uxp_NAP_1_ligand
   73    77     1     0     0
SMALL
NO_CHARGES


@<TRIPOS>ATOM
     1 PA         -18.8830    60.3370    12.0530 P.3          1 NAP1503   0.0000
     2 O1A        -20.1580    59.5830    12.1170 O.co2        1 NAP1503   0.0000
     3 O2A        -17.7010    59.4540    11.9670 O.co2        1 NAP1503  -1.0000
     4 O5B        -18.6130    61.3140    13.1870 O.3          1 NAP1503   0.0000
     5 C5B        -18.7440    60.7360    14.4270 C.3          1 NAP1503   0.0000
     6 C4B        -18.3930    61.6020    15.6020 C.3          1 NAP1503   0.0000
     7 O4B        -18.6840    60.5920    16.5640 O.3          1 NAP1503   0.0000
     8 C3B        -16.8710    61.7790    15.6100 C.3          1 NAP1503   0.0000
     9 O3B        -16.5380    62.8010    16.5770 O.3          1 NAP1503   0.0000
    10 C2B        -16.4130    60.4360    16.0610 C.3          1 NAP1503   0.0000
    11 O2B        -15.0660    60.4840    16.5260 O.3          1 NAP1503   0.0000
    12 C1B        -17.4660    60.0360    17.1110 C.3          1 NAP1503   0.0000
    13 N9A        -17.6080    58.5840    17.2290 N.pl3        1 NAP1503   0.0000
    14 C8A        -17.2270    57.5840    16.3530 C.2          1 NAP1503   0.0000
    15 N7A        -17.5430    56.3660    16.8620 N.2          1 NAP1503   0.0000
    16 C5A        -18.1110    56.6290    18.0330 C.ar         1 NAP1503   0.0000
    17 C6A        -18.6190    55.7280    18.9660 C.ar         1 NAP1503   0.0000
    18 N6A        -18.5880    54.4140    18.7690 N.pl3        1 NAP1503   0.0000
    19 N1A        -19.1750    56.2340    20.1450 N.ar         1 NAP1503   0.0000
    20 C2A        -19.2180    57.5770    20.3650 C.ar         1 NAP1503   0.0000
    21 N3A        -18.7270    58.4440    19.4580 N.ar         1 NAP1503   0.0000
    22 C4A        -18.1640    57.9970    18.2800 C.ar         1 NAP1503   0.0000
    23 O3         -18.8500    61.1670    10.6730 O.3          1 NAP1503   0.0000
    24 PN         -17.8900    62.2260    10.0620 P.3          1 NAP1503   0.0000
    25 O1N        -17.2110    61.4620     8.9950 O.co2        1 NAP1503   0.0000
    26 O2N        -16.8770    62.7040    11.0530 O.co2        1 NAP1503  -1.0000
    27 O5D        -18.7770    63.3600     9.3190 O.3          1 NAP1503   0.0000
    28 C5D        -20.0450    63.7710     9.7530 C.3          1 NAP1503   0.0000
    29 C4D        -21.1530    62.8480     9.2680 C.3          1 NAP1503   0.0000
    30 O4D        -22.3280    63.3440     9.8780 O.3          1 NAP1503   0.0000
    31 C3D        -21.4600    62.8540     7.7470 C.3          1 NAP1503   0.0000
    32 O3D        -22.0110    61.5480     7.3390 O.3          1 NAP1503   0.0000
    33 C2D        -22.5250    63.9590     7.5720 C.3          1 NAP1503   0.0000
    34 O2D        -23.4510    63.6420     6.5160 O.3          1 NAP1503   0.0000
    35 C1D        -23.1850    64.0010     8.9140 C.3          1 NAP1503   0.0000
    36 N1N        -23.5050    65.3510     9.3270 N.ar         1 NAP1503   1.0000
    37 C2N        -24.8610    65.5620     9.6500 C.ar         1 NAP1503   0.0000
    38 C3N        -25.2760    66.8400    10.0340 C.ar         1 NAP1503   0.0000
    39 C7N        -26.7630    67.0890    10.3640 C.2          1 NAP1503   0.0000
    40 O7N        -27.5727    66.1702    10.2948 O.2          1 NAP1503   0.0000
    41 N7N        -27.0489    68.3294    10.6990 N.am         1 NAP1503   0.0000
    42 C4N        -24.3090    67.9240    10.1030 C.ar         1 NAP1503   0.0000
    43 C5N        -22.9130    67.7110     9.7750 C.ar         1 NAP1503   0.0000
    44 C6N        -22.5250    66.4060     9.3850 C.ar         1 NAP1503   0.0000
    45 P2B        -13.7770    60.0230    15.6210 P.3          1 NAP1503   0.0000
    46 O1X        -14.2580    58.7610    14.8600 O.co2        1 NAP1503   0.0000
    47 O2X        -13.4180    61.1970    14.7800 O.co2        1 NAP1503  -1.0000
    48 O3X        -12.7420    59.6250    16.6620 O.co2        1 NAP1503  -1.0000
    49 H5B1       -18.1507    59.9314    14.4529 H            1 NAP1503   0.0000
    50 H5B2       -19.6968    60.4511    14.5317 H            1 NAP1503   0.0000
    51 H4B        -18.9244    62.4447    15.6891 H            1 NAP1503   0.0000
    52 H3B        -16.5204    62.0027    14.7006 H            1 NAP1503   0.0000
    53 H5         -16.9818    63.6597    16.3207 H            1 NAP1503   0.0000
    54 H2B        -16.4667    59.8005    15.2908 H            1 NAP1503   0.0000
    55 H1B        -17.2559    60.4457    17.9987 H            1 NAP1503   0.0000
    56 H8A        -16.7822    57.7365    15.4705 H            1 NAP1503   0.0000
    57 H6A1       -18.9619    53.7958    19.4604 H            1 NAP1503   0.0000
    58 H6A2       -18.1907    54.0435    17.9294 H            1 NAP1503   0.0000
    59 H2A        -19.6198    57.9249    21.2120 H            1 NAP1503   0.0000
    60 H5D1       -20.2199    64.6924     9.4059 H            1 NAP1503   0.0000
    61 H5D2       -20.0532    63.7844    10.7529 H            1 NAP1503   0.0000
    62 H4D        -20.9773    61.9132     9.5766 H            1 NAP1503   0.0000
    63 H3D        -20.6372    63.0700     7.2214 H            1 NAP1503   0.0000
    64 H16        -22.2060    61.5602     6.3583 H            1 NAP1503   0.0000
    65 H2D        -22.0799    64.8345     7.3836 H            1 NAP1503   0.0000
    66 H18        -23.2067    62.7605     6.1119 H            1 NAP1503   0.0000
    67 H1D        -24.0391    63.4841     8.8556 H            1 NAP1503   0.0000
    68 H2N        -25.5164    64.8081     9.6050 H            1 NAP1503   0.0000
    69 H7N1       -27.9914    68.5844    10.9151 H            1 NAP1503   0.0000
    70 H7N2       -26.3237    69.0168    10.7374 H            1 NAP1503   0.0000
    71 H4N        -24.6131    68.8347    10.3823 H            1 NAP1503   0.0000
    72 H5N        -22.2491    68.4573     9.8223 H            1 NAP1503   0.0000
    73 H6N        -21.5716    66.2167     9.1500 H            1 NAP1503   0.0000
@<TRIPOS>BOND
     1    1    2      ar
     2    1    3      ar
     3    1    4       1
     4    1   23       1
     5    4    5       1
     6    5    6       1
     7    6    7       1
     8    6    8       1
     9    7   12       1
    10    8    9       1
    11    8   10       1
    12   10   11       1
    13   10   12       1
    14   11   45       1
    15   12   13       1
    16   13   14       1
    17   13   22       1
    18   14   15       2
    19   15   16       1
    20   16   17      ar
    21   16   22      ar
    22   17   18       1
    23   17   19      ar
    24   19   20      ar
    25   20   21      ar
    26   21   22      ar
    27   23   24       1
    28   24   25      ar
    29   24   26      ar
    30   24   27       1
    31   27   28       1
    32   28   29       1
    33   29   30       1
    34   29   31       1
    35   30   35       1
    36   31   32       1
    37   31   33       1
    38   33   34       1
    39   33   35       1
    40   35   36       1
    41   36   37      ar
    42   36   44      ar
    43   37   38      ar
    44   38   39       1
    45   38   42      ar
    46   39   40       2
    47   39   41      am
    48   42   43      ar
    49   43   44      ar
    50   45   46      ar
    51   45   47      ar
    52   45   48      ar
    53   43   72       1
    54    5   49       1
    55    5   50       1
    56    6   51       1
    57    8   52       1
    58    9   53       1
    59   10   54       1
    60   12   55       1
    61   14   56       1
    62   18   57       1
    63   18   58       1
    64   20   59       1
    65   44   73       1
    66   28   60       1
    67   28   61       1
    68   29   62       1
    69   31   63       1
    70   32   64       1
    71   33   65       1
    72   34   66       1
    73   35   67       1
    74   37   68       1
    75   41   69       1
    76   41   70       1
    77   42   71       1
@<TRIPOS>SUBSTRUCTURE
     1 NAP1503     1 GROUP             4 A     NAP     0 **** NAP A1503
