@<TRIPOS>MOLECULE
1t57_FMN_3_ligand
   50    52     1     0     0
SMALL
NO_CHARGES


@<TRIPOS>ATOM
     1 N1         -15.7670    -1.5320   -33.3580 N.2          1 FMN202   0.0000
     2 C2         -15.1920    -0.3750   -32.9530 C.2          1 FMN202   0.0000
     3 O2         -15.4650     0.7750   -33.2950 O.2          1 FMN202   0.0000
     4 N3         -14.1010    -0.4630   -31.9750 N.pl3        1 FMN202   0.0000
     5 C4         -13.9390    -1.6210   -31.1560 C.2          1 FMN202   0.0000
     6 O4         -13.2570    -1.4550   -30.1520 O.2          1 FMN202   0.0000
     7 C4A        -14.5730    -2.7680   -31.5920 C.2          1 FMN202   0.0000
     8 N5         -14.3250    -3.8690   -30.9780 N.2          1 FMN202   0.0000
     9 C5A        -14.8740    -5.0850   -31.4390 C.ar         1 FMN202   0.0000
    10 C6         -14.4730    -6.3460   -30.9360 C.ar         1 FMN202   0.0000
    11 C7         -15.2200    -7.5350   -31.2900 C.ar         1 FMN202   0.0000
    12 C7M        -14.6740    -8.7080   -30.4970 C.3          1 FMN202   0.0000
    13 C8         -16.2730    -7.4700   -32.2750 C.ar         1 FMN202   0.0000
    14 C8M        -16.8840    -8.7170   -32.7340 C.3          1 FMN202   0.0000
    15 C9         -16.6720    -6.2530   -32.7670 C.ar         1 FMN202   0.0000
    16 C9A        -15.9110    -5.0060   -32.4950 C.ar         1 FMN202   0.0000
    17 N10        -16.2010    -3.8480   -33.2220 N.pl3        1 FMN202   0.0000
    18 C10        -15.5550    -2.7220   -32.7740 C.2          1 FMN202   0.0000
    19 C1'        -17.1340    -3.6530   -34.3610 C.3          1 FMN202   0.0000
    20 C2'        -17.0670    -4.6510   -35.5290 C.3          1 FMN202   0.0000
    21 O2'        -15.7330    -4.9130   -35.8700 O.3          1 FMN202   0.0000
    22 C3'        -17.8090    -4.0620   -36.7200 C.3          1 FMN202   0.0000
    23 O3'        -18.5750    -2.8740   -36.3650 O.3          1 FMN202   0.0000
    24 C4'        -18.8580    -4.9470   -37.4540 C.3          1 FMN202   0.0000
    25 O4'        -19.3030    -4.2980   -38.5980 O.3          1 FMN202   0.0000
    26 C5'        -20.1290    -5.3960   -36.6930 C.3          1 FMN202   0.0000
    27 O5'        -20.5950    -6.5610   -37.4410 O.3          1 FMN202   0.0000
    28 P          -21.9020    -6.4200   -38.3260 P.3          1 FMN202   0.0000
    29 O1P        -21.9430    -7.7620   -39.0950 O.co2        1 FMN202   0.0000
    30 O2P        -23.0690    -6.2950   -37.4080 O.co2        1 FMN202  -1.0000
    31 O3P        -21.7710    -5.2500   -39.3140 O.co2        1 FMN202  -1.0000
    32 H1         -13.4614     0.2999   -31.8810 H            1 FMN202   0.0000
    33 H2         -13.6752    -6.4156   -30.3372 H            1 FMN202   0.0000
    34 H7M1       -15.1827    -9.5358   -30.7334 H            1 FMN202   0.0000
    35 H7M2       -13.7069    -8.8371   -30.7160 H            1 FMN202   0.0000
    36 H7M3       -14.7726    -8.5240   -29.5190 H            1 FMN202   0.0000
    37 H8M1       -17.5918    -8.5123   -33.4102 H            1 FMN202   0.0000
    38 H8M2       -16.1841    -9.2979   -33.1495 H            1 FMN202   0.0000
    39 H8M3       -17.2939    -9.1934   -31.9562 H            1 FMN202   0.0000
    40 H9         -17.5000    -6.2037   -33.3256 H            1 FMN202   0.0000
    41 H1'1       -16.9581    -2.7432   -34.7369 H            1 FMN202   0.0000
    42 H1'2       -18.0633    -3.6877   -33.9933 H            1 FMN202   0.0000
    43 H2'        -17.5098    -5.5052   -35.2564 H            1 FMN202   0.0000
    44 H13        -15.2852    -4.0614   -36.1425 H            1 FMN202   0.0000
    45 H3'        -17.1238    -3.7869   -37.3944 H            1 FMN202   0.0000
    46 H15        -19.4969    -3.1429   -36.0860 H            1 FMN202   0.0000
    47 H4'        -18.3856    -5.7765   -37.7519 H            1 FMN202   0.0000
    48 H17        -18.5287    -4.1287   -39.2077 H            1 FMN202   0.0000
    49 H5'1       -20.8192    -4.6724   -36.6956 H            1 FMN202   0.0000
    50 H5'2       -19.9095    -5.6438   -35.7494 H            1 FMN202   0.0000
@<TRIPOS>BOND
     1    1    2       1
     2    1   18       2
     3    2    3       2
     4    2    4       1
     5    4    5       1
     6    5    6       2
     7    5    7       1
     8    7    8       2
     9    7   18       1
    10    8    9       1
    11    9   10      ar
    12    9   16      ar
    13   10   11      ar
    14   11   12       1
    15   11   13      ar
    16   13   14       1
    17   13   15      ar
    18   15   16      ar
    19   16   17       1
    20   17   18       1
    21   17   19       1
    22   19   20       1
    23   20   21       1
    24   20   22       1
    25   22   23       1
    26   22   24       1
    27   24   25       1
    28   24   26       1
    29   26   27       1
    30   27   28       1
    31   28   29      ar
    32   28   30      ar
    33   28   31      ar
    34    4   32       1
    35   10   33       1
    36   12   34       1
    37   12   35       1
    38   12   36       1
    39   14   37       1
    40   14   38       1
    41   14   39       1
    42   15   40       1
    43   19   41       1
    44   19   42       1
    45   20   43       1
    46   21   44       1
    47   22   45       1
    48   23   46       1
    49   24   47       1
    50   25   48       1
    51   26   49       1
    52   26   50       1
@<TRIPOS>SUBSTRUCTURE
     1 FMN202      1 GROUP             4 C     FMN     0 **** FMN C 202
