@<TRIPOS>MOLECULE
3ng9_ADE_1_ligand
   15    16     1     0     0
SMALL
NO_CHARGES


@<TRIPOS>ATOM
     1 N9         228.3020   -81.1250   652.7690 N.2          1 ADE737   0.0000
     2 C8         227.0680   -81.3370   653.2880 C.2          1 ADE737   0.0000
     3 N7         227.0340   -80.8960   654.5790 N.pl3        1 ADE737   0.0000
     4 C5         228.2590   -80.4010   654.8920 C.ar         1 ADE737   0.0000
     5 C6         228.8620   -79.8100   656.0200 C.ar         1 ADE737   0.0000
     6 N6         228.2020   -79.6040   657.1990 N.pl3        1 ADE737   0.0000
     7 N1         230.1570   -79.4320   655.9140 N.ar         1 ADE737   0.0000
     8 C2         230.8600   -79.6110   654.7750 C.ar         1 ADE737   0.0000
     9 N3         230.3100   -80.1630   653.6840 N.ar         1 ADE737   0.0000
    10 C4         229.0220   -80.5570   653.7510 C.ar         1 ADE737   0.0000
    11 H1         226.3005   -81.7526   652.8000 H            1 ADE737   0.0000
    12 H2         228.6767   -79.1800   657.9703 H            1 ADE737   0.0000
    13 H3         227.2444   -79.8773   657.2903 H            1 ADE737   0.0000
    14 H4         231.8174   -79.3239   654.7444 H            1 ADE737   0.0000
    15 H5         226.2428   -80.9313   655.1896 H            1 ADE737   0.0000
@<TRIPOS>BOND
     1    1    2       2
     2    1   10       1
     3    2    3       1
     4    3    4       1
     5    4    5      ar
     6    4   10      ar
     7    5    6       1
     8    5    7      ar
     9    7    8      ar
    10    8    9      ar
    11    9   10      ar
    12    8   14       1
    13    2   11       1
    14    6   12       1
    15    6   13       1
    16    3   15       1
@<TRIPOS>SUBSTRUCTURE
     1 ADE737      1 GROUP             4 A     ADE     0 **** ADE A 737
