@<TRIPOS>MOLECULE
3ndc_SAH_2_ligand
   46    48     1     0     0
SMALL
NO_CHARGES


@<TRIPOS>ATOM
     1 N           18.8970   -38.2150    -2.2930 N.4          1 SAH300   1.0000
     2 CA          18.7570   -38.3770    -0.8230 C.3          1 SAH300   0.0000
     3 CB          18.4290   -39.8500    -0.5050 C.3          1 SAH300   0.0000
     4 CG          17.0430   -40.2870    -1.0300 C.3          1 SAH300   0.0000
     5 SD          16.6980   -41.9550    -0.5520 S.3          1 SAH300   0.0000
     6 C           20.0270   -37.8990    -0.1290 C.2          1 SAH300   0.0000
     7 O           20.8550   -37.1560    -0.6770 O.co2        1 SAH300   0.0000
     8 OXT         20.2910   -38.2310     1.0230 O.co2        1 SAH300  -1.0000
     9 C5'         15.7200   -41.7090     0.9120 C.3          1 SAH300   0.0000
    10 C4'         16.4950   -42.1650     2.1530 C.3          1 SAH300   0.0000
    11 O4'         17.4590   -41.1740     2.5560 O.3          1 SAH300   0.0000
    12 C3'         15.6110   -42.4090     3.3710 C.3          1 SAH300   0.0000
    13 O3'         15.3150   -43.7930     3.5110 O.3          1 SAH300   0.0000
    14 C2'         16.4740   -42.0240     4.5430 C.3          1 SAH300   0.0000
    15 O2'         17.3850   -43.0730     4.8620 O.3          1 SAH300   0.0000
    16 C1'         17.3270   -40.9370     3.9630 C.3          1 SAH300   0.0000
    17 N9          16.8320   -39.5650     4.2660 N.pl3        1 SAH300   0.0000
    18 C8          16.3810   -38.6460     3.3990 C.2          1 SAH300   0.0000
    19 N7          16.0990   -37.4770     4.0600 N.2          1 SAH300   0.0000
    20 C5          16.3890   -37.6750     5.3620 C.ar         1 SAH300   0.0000
    21 C6          16.3410   -36.8850     6.6030 C.ar         1 SAH300   0.0000
    22 N6          15.8990   -35.6040     6.5770 N.pl3        1 SAH300   0.0000
    23 N1          16.7250   -37.4780     7.7410 N.ar         1 SAH300   0.0000
    24 C2          17.1630   -38.7540     7.8050 C.ar         1 SAH300   0.0000
    25 N3          17.2390   -39.5320     6.7190 N.ar         1 SAH300   0.0000
    26 C4          16.8690   -39.0550     5.4950 C.ar         1 SAH300   0.0000
    27 H1          18.0075   -37.9880    -2.6895 H            1 SAH300   0.0000
    28 H2          19.5460   -37.4793    -2.4870 H            1 SAH300   0.0000
    29 HA          17.9944   -37.8091    -0.5133 H            1 SAH300   0.0000
    30 HB1         18.4473   -39.9735     0.4872 H            1 SAH300   0.0000
    31 HB2         19.1265   -40.4298    -0.9260 H            1 SAH300   0.0000
    32 HG1         17.0334   -40.2218    -2.0278 H            1 SAH300   0.0000
    33 HG2         16.3418   -39.6839    -0.6498 H            1 SAH300   0.0000
    34 H5'1        14.8754   -42.2392     0.8373 H            1 SAH300   0.0000
    35 H5'2        15.4973   -40.7381     1.0006 H            1 SAH300   0.0000
    36 H4'         16.9793   -43.0121     1.9343 H            1 SAH300   0.0000
    37 H3'         14.7771   -41.8584     3.3341 H            1 SAH300   0.0000
    38 H12         15.1878   -44.0104     4.4788 H            1 SAH300   0.0000
    39 H2'         15.9417   -41.7193     5.3328 H            1 SAH300   0.0000
    40 H14         17.2236   -43.3810     5.7996 H            1 SAH300   0.0000
    41 H1'         18.2374   -41.0229     4.3677 H            1 SAH300   0.0000
    42 H16         16.2671   -38.7914     2.4162 H            1 SAH300   0.0000
    43 H17         15.8671   -35.0688     7.4212 H            1 SAH300   0.0000
    44 H18         15.6048   -35.1940     5.7137 H            1 SAH300   0.0000
    45 H19         17.4387   -39.1285     8.6903 H            1 SAH300   0.0000
    46 H20         19.2318   -39.0686    -2.6920 H            1 SAH300   0.0000
@<TRIPOS>BOND
     1    1    2       1
     2    2    3       1
     3    2    6       1
     4    3    4       1
     5    4    5       1
     6    5    9       1
     7    6    7      ar
     8    6    8      ar
     9    9   10       1
    10   10   11       1
    11   10   12       1
    12   11   16       1
    13   12   13       1
    14   12   14       1
    15   14   15       1
    16   14   16       1
    17   16   17       1
    18   17   18       1
    19   17   26       1
    20   18   19       2
    21   19   20       1
    22   20   21      ar
    23   20   26      ar
    24   21   22       1
    25   21   23      ar
    26   23   24      ar
    27   24   25      ar
    28   25   26      ar
    29    1   27       1
    30    1   28       1
    31    2   29       1
    32    3   30       1
    33    3   31       1
    34    4   32       1
    35    4   33       1
    36    1   46       1
    37    9   34       1
    38    9   35       1
    39   10   36       1
    40   12   37       1
    41   13   38       1
    42   14   39       1
    43   15   40       1
    44   16   41       1
    45   18   42       1
    46   22   43       1
    47   22   44       1
    48   24   45       1
@<TRIPOS>SUBSTRUCTURE
     1 SAH300      1 GROUP             4 B     SAH     0 **** SAH B 300
