@<TRIPOS>MOLECULE
2c9e_PID_3_ligand
   96    99     1     0     0
SMALL
NO_CHARGES


@<TRIPOS>ATOM
     1 C1          13.4470    21.1600    20.0210 C.3          1 PID1331   0.0000
     2 C2          13.2890    22.1440    21.1860 C.3          1 PID1331   0.0000
     3 C3          11.9860    21.8590    21.9390 C.3          1 PID1331   0.0000
     4 C4          10.8220    22.0550    20.9640 C.3          1 PID1331   0.0000
     5 C5          10.8010    21.0200    19.8330 C.3          1 PID1331   0.0000
     6 C6          12.1980    20.6480    19.2970 C.3          1 PID1331   0.0000
     7 C7          12.2190    20.1920    17.9740 C.2          1 PID1331   0.0000
     8 C8          12.8090    19.0130    17.5120 C.2          1 PID1331   0.0000
     9 C9          12.7860    18.5690    16.1860 C.2          1 PID1331   0.0000
    10 C10         12.1880    19.1820    15.0900 C.2          1 PID1331   0.0000
    11 C11         13.2650    17.4070    15.7370 C.2          1 PID1331   0.0000
    12 C12         12.9860    17.2710    14.4360 C.2          1 PID1331   0.0000
    13 C13         13.3260    16.1690    13.6490 C.2          1 PID1331   0.0000
    14 C14         13.0480    15.9800    12.2930 C.2          1 PID1331   0.0000
    15 C15         13.4640    14.8010    11.6690 C.2          1 PID1331   0.0000
    16 C16         13.2450    14.4570    10.3350 C.2          1 PID1331   0.0000
    17 C17         13.6860    13.2430     9.8070 C.2          1 PID1331   0.0000
    18 C18         13.4370    12.8780     8.4840 C.2          1 PID1331   0.0000
    19 C19         13.8360    11.6690     7.9170 C.2          1 PID1331   0.0000
    20 C20         13.4920    11.3850     6.5930 C.2          1 PID1331   0.0000
    21 C21         13.7820    10.2040     5.9080 C.2          1 PID1331   0.0000
    22 C22         13.3430    10.0450     4.5930 C.2          1 PID1331   0.0000
    23 C23         13.5590     8.9490     3.9160 C.2          1 PID1331   0.0000
    24 C24         13.7220     7.8130     3.2870 C.2          1 PID1331   0.0000
    25 C25         12.7130     6.6590     3.3960 C.3          1 PID1331   0.0000
    26 C26         13.4550     5.4230     3.9180 C.3          1 PID1331   0.0000
    27 C27         14.7180     5.0990     3.1110 C.3          1 PID1331   0.0000
    28 C28         15.6660     6.3010     3.0010 C.3          1 PID1331   0.0000
    29 C29         14.9640     7.5420     2.4350 C.3          1 PID1331   0.0000
    30 C30         15.0420     2.8010     3.6360 C.2          1 PID1331   0.0000
    31 C31         15.8400     1.6700     4.2880 C.3          1 PID1331   0.0000
    32 CM1         14.7670    21.3100    19.2620 C.3          1 PID1331   0.0000
    33 CM2          9.9190    21.6090    18.7270 C.3          1 PID1331   0.0000
    34 CM3         10.0990    19.7780    20.3870 C.3          1 PID1331   0.0000
    35 CM4         12.2820    17.0400    11.4950 C.3          1 PID1331   0.0000
    36 CM5         14.5430     9.0600     6.5890 C.3          1 PID1331   0.0000
    37 CM6         11.6070     6.9810     4.4050 C.3          1 PID1331   0.0000
    38 CM7         12.0610     6.3850     2.0390 C.3          1 PID1331   0.0000
    39 CM8         15.9170     8.7410     2.4690 C.3          1 PID1331   0.0000
    40 O1          12.9560    19.8290    20.2070 O.3          1 PID1331   0.0000
    41 O2          11.8280    22.7700    23.0320 O.3          1 PID1331   0.0000
    42 O3          11.6070    20.2650    15.0960 O.2          1 PID1331   0.0000
    43 O4          12.3110    18.3740    13.9940 O.3          1 PID1331   0.0000
    44 O5          14.5140     7.2780     1.0990 O.3          1 PID1331   0.0000
    45 O6          15.4380     4.0880     3.8350 O.3          1 PID1331   0.0000
    46 O7          14.1010     2.5370     2.8900 O.2          1 PID1331   0.0000
    47 H1          13.2682    23.0782    20.8300 H            1 PID1331   0.0000
    48 H2          14.0622    22.0430    21.8120 H            1 PID1331   0.0000
    49 H3          11.9892    20.9185    22.2789 H            1 PID1331   0.0000
    50 H4          10.8963    22.9665    20.5594 H            1 PID1331   0.0000
    51 H5           9.9648    21.9857    21.4743 H            1 PID1331   0.0000
    52 H6          11.7670    20.7670    17.2920 H            1 PID1331   0.0000
    53 H7          13.2847    18.4423    18.1813 H            1 PID1331   0.0000
    54 H8          13.7593    16.7373    16.2912 H            1 PID1331   0.0000
    55 H9          13.8241    15.4328    14.1071 H            1 PID1331   0.0000
    56 H10         13.9652    14.1428    12.2308 H            1 PID1331   0.0000
    57 H11         12.7587    15.0978     9.7409 H            1 PID1331   0.0000
    58 H12         14.1962    12.6154    10.3951 H            1 PID1331   0.0000
    59 H13         12.9405    13.5251     7.9054 H            1 PID1331   0.0000
    60 H14         14.3640    11.0104     8.4532 H            1 PID1331   0.0000
    61 H15         12.9931    12.0914     6.0909 H            1 PID1331   0.0000
    62 H16         12.8469    10.7945     4.1547 H            1 PID1331   0.0000
    63 H17         12.8375     4.6377     3.8729 H            1 PID1331   0.0000
    64 H18         13.7174     5.5866     4.8690 H            1 PID1331   0.0000
    65 H19         14.4725     4.7658     2.2006 H            1 PID1331   0.0000
    66 H20         16.4260     6.0578     2.3983 H            1 PID1331   0.0000
    67 H21         16.0187     6.5175     3.9114 H            1 PID1331   0.0000
    68 H22         15.4276     0.7907     4.0497 H            1 PID1331   0.0000
    69 H23         16.7840     1.6955     3.9591 H            1 PID1331   0.0000
    70 H24         15.8299     1.7846     5.2814 H            1 PID1331   0.0000
    71 HM11        14.8026    20.6408    18.5198 H            1 PID1331   0.0000
    72 HM12        14.8300    22.2329    18.8821 H            1 PID1331   0.0000
    73 HM13        15.5311    21.1544    19.8881 H            1 PID1331   0.0000
    74 HM21         9.8725    20.9680    17.9609 H            1 PID1331   0.0000
    75 HM22         8.9988    21.7689    19.0842 H            1 PID1331   0.0000
    76 HM23        10.3102    22.4745    18.4141 H            1 PID1331   0.0000
    77 HM31        10.0622    19.0724    19.6794 H            1 PID1331   0.0000
    78 HM32        10.6066    19.4324    21.1763 H            1 PID1331   0.0000
    79 HM33         9.1695    20.0177    20.6674 H            1 PID1331   0.0000
    80 HM41        12.1776    16.7339    10.5487 H            1 PID1331   0.0000
    81 HM42        11.3792    17.1763    11.9028 H            1 PID1331   0.0000
    82 HM43        12.7893    17.9016    11.5126 H            1 PID1331   0.0000
    83 HM51        14.6550     8.3039     5.9442 H            1 PID1331   0.0000
    84 HM52        15.4425     9.3852     6.8809 H            1 PID1331   0.0000
    85 HM53        14.0278     8.7449     7.3860 H            1 PID1331   0.0000
    86 HM61        10.9672     6.2140     4.4544 H            1 PID1331   0.0000
    87 HM62        12.0124     7.1354     5.3060 H            1 PID1331   0.0000
    88 HM63        11.1191     7.8038     4.1135 H            1 PID1331   0.0000
    89 HM71        11.4085     5.6325     2.1285 H            1 PID1331   0.0000
    90 HM72        11.5824     7.2058     1.7273 H            1 PID1331   0.0000
    91 HM73        12.7660     6.1376     1.3743 H            1 PID1331   0.0000
    92 HM81        16.7205     8.5442     1.9073 H            1 PID1331   0.0000
    93 HM82        15.4493     9.5488     2.1103 H            1 PID1331   0.0000
    94 HM83        16.2032     8.9127     3.4117 H            1 PID1331   0.0000
    95 H49         10.8542    22.9249    23.1988 H            1 PID1331   0.0000
    96 H50         14.8025     6.3605     0.8253 H            1 PID1331   0.0000
@<TRIPOS>BOND
     1    1    2       1
     2    1    6       1
     3    1   32       1
     4    1   40       1
     5    2    3       1
     6    3    4       1
     7    3   41       1
     8    4    5       1
     9    5    6       1
    10    5   33       1
    11    5   34       1
    12    6    7       1
    13    6   40       1
    14    7    8       2
    15    8    9       1
    16    9   10       1
    17    9   11       2
    18   10   42       2
    19   10   43       1
    20   11   12       1
    21   12   13       2
    22   12   43       1
    23   13   14       1
    24   14   15       2
    25   14   35       1
    26   15   16       1
    27   16   17       2
    28   17   18       1
    29   18   19       2
    30   19   20       1
    31   20   21       2
    32   21   22       1
    33   21   36       1
    34   22   23       2
    35   23   24       2
    36   24   25       1
    37   24   29       1
    38   25   26       1
    39   25   37       1
    40   25   38       1
    41   26   27       1
    42   27   28       1
    43   27   45       1
    44   28   29       1
    45   29   39       1
    46   29   44       1
    47   30   31       1
    48   30   45       1
    49   30   46       2
    50    2   47       1
    51    2   48       1
    52    3   49       1
    53    4   50       1
    54    4   51       1
    55    7   52       1
    56    8   53       1
    57   11   54       1
    58   13   55       1
    59   15   56       1
    60   16   57       1
    61   17   58       1
    62   18   59       1
    63   19   60       1
    64   20   61       1
    65   22   62       1
    66   26   63       1
    67   26   64       1
    68   27   65       1
    69   28   66       1
    70   28   67       1
    71   31   68       1
    72   31   69       1
    73   31   70       1
    74   32   71       1
    75   32   72       1
    76   32   73       1
    77   33   74       1
    78   33   75       1
    79   33   76       1
    80   34   77       1
    81   34   78       1
    82   34   79       1
    83   35   80       1
    84   35   81       1
    85   35   82       1
    86   36   83       1
    87   36   84       1
    88   36   85       1
    89   37   86       1
    90   37   87       1
    91   37   88       1
    92   38   89       1
    93   38   90       1
    94   38   91       1
    95   39   92       1
    96   39   93       1
    97   39   94       1
    98   41   95       1
    99   44   96       1
@<TRIPOS>SUBSTRUCTURE
     1 PID1331     1 GROUP             4 A     PID     0 **** PID A1331
