@<TRIPOS>MOLECULE
3zpo_K0I_2_ligand
   51    54     1     0     0
SMALL
NO_CHARGES


@<TRIPOS>ATOM
     1 O2         -40.6280   -51.6370    25.0310 O.co2        1 K0I1900   0.0000
     2 C1         -39.7130   -50.9880    25.5230 C.2          1 K0I1900   0.0000
     3 O1         -39.6380   -50.6930    26.7870 O.co2        1 K0I1900  -1.0000
     4 C2         -38.5610   -50.4780    24.6990 C.3          1 K0I1900   0.0000
     5 C3         -37.2250   -50.9160    25.2090 C.3          1 K0I1900   0.0000
     6 N1         -36.1170   -50.2440    24.5400 N.pl3        1 K0I1900   0.0000
     7 C4         -34.8230   -50.3840    24.9400 C.ar         1 K0I1900   0.0000
     8 N3         -33.9080   -49.7350    24.2030 N.ar         1 K0I1900   0.0000
     9 C7         -32.6340   -49.8530    24.6210 C.ar         1 K0I1900   0.0000
    10 C8         -31.5750   -49.1620    23.8360 C.ar         1 K0I1900   0.0000
    11 N4         -31.9490   -48.5920    22.6800 N.ar         1 K0I1900   0.0000
    12 C12        -30.9930   -48.0350    21.9200 C.ar         1 K0I1900   0.0000
    13 C11        -29.6590   -48.0010    22.2720 C.ar         1 K0I1900   0.0000
    14 C10        -29.2830   -48.6010    23.4600 C.ar         1 K0I1900   0.0000
    15 C9         -30.2460   -49.1880    24.2610 C.ar         1 K0I1900   0.0000
    16 N2         -32.2230   -50.5590    25.6850 N.ar         1 K0I1900   0.0000
    17 C6         -33.1280   -51.1900    26.4180 C.ar         1 K0I1900   0.0000
    18 C5         -34.4880   -51.1500    26.0740 C.ar         1 K0I1900   0.0000
    19 N5         -32.6690   -51.7320    27.5990 N.pl3        1 K0I1900   0.0000
    20 C22        -31.2810   -51.5290    28.0190 C.3          1 K0I1900   0.0000
    21 C21        -31.2290   -50.2810    28.9180 C.3          1 K0I1900   0.0000
    22 C20        -31.7900   -50.3800    30.3190 C.ar         1 K0I1900   0.0000
    23 C15        -33.0700   -50.8770    30.6050 C.ar         1 K0I1900   0.0000
    24 C14        -34.0400   -51.3120    29.5300 C.3          1 K0I1900   0.0000
    25 C13        -33.5200   -52.3920    28.5890 C.3          1 K0I1900   0.0000
    26 C19        -30.9790   -49.9600    31.3700 C.ar         1 K0I1900   0.0000
    27 C18        -31.4100   -50.0420    32.6760 C.ar         1 K0I1900   0.0000
    28 C17        -32.6540   -50.5480    32.9580 C.ar         1 K0I1900   0.0000
    29 C16        -33.4790   -50.9630    31.9310 C.ar         1 K0I1900   0.0000
    30 H1         -38.5885   -49.4784    24.7004 H            1 K0I1900   0.0000
    31 H2         -38.6682   -50.8131    23.7629 H            1 K0I1900   0.0000
    32 H3         -37.1352   -51.9014    25.0645 H            1 K0I1900   0.0000
    33 H4         -37.1755   -50.7167    26.1877 H            1 K0I1900   0.0000
    34 H5         -36.3157   -49.6565    23.7556 H            1 K0I1900   0.0000
    35 H6         -31.2624   -47.6216    21.0502 H            1 K0I1900   0.0000
    36 H7         -28.9834   -47.5552    21.6847 H            1 K0I1900   0.0000
    37 H8         -28.3224   -48.6104    23.7378 H            1 K0I1900   0.0000
    38 H9         -29.9951   -49.6218    25.1264 H            1 K0I1900   0.0000
    39 H10        -35.1810   -51.6382    26.6045 H            1 K0I1900   0.0000
    40 H11        -30.7008   -51.3924    27.2161 H            1 K0I1900   0.0000
    41 H12        -30.9614   -52.3274    28.5292 H            1 K0I1900   0.0000
    42 H13        -31.7336   -49.5568    28.4480 H            1 K0I1900   0.0000
    43 H14        -30.2681   -50.0171    29.0022 H            1 K0I1900   0.0000
    44 H15        -34.2746   -50.5096    28.9812 H            1 K0I1900   0.0000
    45 H16        -34.8628   -51.6615    29.9781 H            1 K0I1900   0.0000
    46 H17        -32.9888   -53.0663    29.1020 H            1 K0I1900   0.0000
    47 H18        -34.2854   -52.8469    28.1337 H            1 K0I1900   0.0000
    48 H19        -30.0696   -49.5932    31.1738 H            1 K0I1900   0.0000
    49 H20        -30.8161   -49.7327    33.4187 H            1 K0I1900   0.0000
    50 H21        -32.9630   -50.6162    33.9066 H            1 K0I1900   0.0000
    51 H22        -34.3841   -51.3308    32.1444 H            1 K0I1900   0.0000
@<TRIPOS>BOND
     1    1    2      ar
     2    2    3      ar
     3    2    4       1
     4    4    5       1
     5    5    6       1
     6    6    7       1
     7    7    8      ar
     8    7   18      ar
     9    8    9      ar
    10    9   10       1
    11    9   16      ar
    12   10   11      ar
    13   10   15      ar
    14   11   12      ar
    15   12   13      ar
    16   13   14      ar
    17   14   15      ar
    18   16   17      ar
    19   17   18      ar
    20   17   19       1
    21   19   20       1
    22   19   25       1
    23   20   21       1
    24   21   22       1
    25   22   23      ar
    26   22   26      ar
    27   23   24       1
    28   23   29      ar
    29   24   25       1
    30   26   27      ar
    31   27   28      ar
    32   28   29      ar
    33   29   51       1
    34    4   30       1
    35    4   31       1
    36    5   32       1
    37    5   33       1
    38    6   34       1
    39   12   35       1
    40   13   36       1
    41   14   37       1
    42   15   38       1
    43   18   39       1
    44   20   40       1
    45   20   41       1
    46   21   42       1
    47   21   43       1
    48   24   44       1
    49   24   45       1
    50   25   46       1
    51   25   47       1
    52   26   48       1
    53   27   49       1
    54   28   50       1
@<TRIPOS>SUBSTRUCTURE
     1 K0I1900     1 GROUP             4 B     K0I     0 **** K0I B1900
