@<TRIPOS>MOLECULE
3hj9_FMN_1_ligand
   50    52     1     0     0
SMALL
NO_CHARGES


@<TRIPOS>ATOM
     1 N1         -27.2870    41.4950     2.8820 N.2          1 FMN300   0.0000
     2 C2         -26.5510    41.3250     1.7240 C.2          1 FMN300   0.0000
     3 O2         -27.0720    41.5210     0.6230 O.2          1 FMN300   0.0000
     4 N3         -25.2130    40.9510     1.8170 N.pl3        1 FMN300   0.0000
     5 C4         -24.6230    40.7070     3.0510 C.2          1 FMN300   0.0000
     6 O4         -23.4290    40.3760     3.0750 O.2          1 FMN300   0.0000
     7 C4A        -25.3730    40.8760     4.2270 C.2          1 FMN300   0.0000
     8 N5         -24.8100    40.6550     5.4690 N.2          1 FMN300   0.0000
     9 C5A        -25.5300    40.8970     6.6280 C.ar         1 FMN300   0.0000
    10 C6         -24.8900    40.6900     7.8440 C.ar         1 FMN300   0.0000
    11 C7         -25.5880    40.9010     9.0430 C.ar         1 FMN300   0.0000
    12 C7M        -24.8900    40.6740    10.3550 C.3          1 FMN300   0.0000
    13 C8         -26.9300    41.3000     9.0240 C.ar         1 FMN300   0.0000
    14 C8M        -27.6770    41.5000    10.3080 C.3          1 FMN300   0.0000
    15 C9         -27.5840    41.4920     7.7920 C.ar         1 FMN300   0.0000
    16 C9A        -26.8920    41.2930     6.5750 C.ar         1 FMN300   0.0000
    17 N10        -27.4640    41.4900     5.3160 N.pl3        1 FMN300   0.0000
    18 C10        -26.7180    41.2720     4.1420 C.2          1 FMN300   0.0000
    19 C1'        -28.8710    41.9940     5.1500 C.3          1 FMN300   0.0000
    20 C2'        -29.9240    40.9250     5.2700 C.3          1 FMN300   0.0000
    21 O2'        -29.9170    40.0840     4.1340 O.3          1 FMN300   0.0000
    22 C3'        -31.2670    41.6210     5.4430 C.3          1 FMN300   0.0000
    23 O3'        -31.2690    42.2290     6.7180 O.3          1 FMN300   0.0000
    24 C4'        -32.3960    40.5820     5.3090 C.3          1 FMN300   0.0000
    25 O4'        -32.5680    40.3560     3.9140 O.3          1 FMN300   0.0000
    26 C5'        -33.7080    41.0170     5.9450 C.3          1 FMN300   0.0000
    27 O5'        -34.1480    42.1710     5.2310 O.3          1 FMN300   0.0000
    28 P          -34.4650    43.5210     6.0190 P.3          1 FMN300   0.0000
    29 O1P        -35.2620    43.3000     7.2780 O.co2        1 FMN300   0.0000
    30 O2P        -33.1420    44.1590     6.4030 O.co2        1 FMN300  -1.0000
    31 O3P        -35.2530    44.4220     5.0680 O.co2        1 FMN300  -1.0000
    32 H1         -24.6687    40.8566     0.9834 H            1 FMN300   0.0000
    33 H2         -23.9357    40.3918     7.8646 H            1 FMN300   0.0000
    34 H7M1       -25.5213    40.8670    11.1062 H            1 FMN300   0.0000
    35 H7M2       -24.5863    39.7229    10.4108 H            1 FMN300   0.0000
    36 H7M3       -24.0982    41.2812    10.4207 H            1 FMN300   0.0000
    37 H8M1       -28.6152    41.7821    10.1074 H            1 FMN300   0.0000
    38 H8M2       -27.6896    40.6431    10.8233 H            1 FMN300   0.0000
    39 H8M3       -27.2246    42.2082    10.8500 H            1 FMN300   0.0000
    40 H9         -28.5442    41.7709     7.7775 H            1 FMN300   0.0000
    41 H1'1       -28.9501    42.4128     4.2453 H            1 FMN300   0.0000
    42 H1'2       -29.0425    42.6842     5.8530 H            1 FMN300   0.0000
    43 H2'        -29.7365    40.3741     6.0832 H            1 FMN300   0.0000
    44 H13        -29.2919    39.3191     4.2894 H            1 FMN300   0.0000
    45 H3'        -31.3731    42.3224     4.7382 H            1 FMN300   0.0000
    46 H15        -31.8445    43.0465     6.6965 H            1 FMN300   0.0000
    47 H4'        -32.0991    39.7288     5.7379 H            1 FMN300   0.0000
    48 H17        -33.2441    40.9984     3.5531 H            1 FMN300   0.0000
    49 H5'1       -33.5657    41.2418     6.9089 H            1 FMN300   0.0000
    50 H5'2       -34.3863    40.2860     5.8698 H            1 FMN300   0.0000
@<TRIPOS>BOND
     1    1    2       1
     2    1   18       2
     3    2    3       2
     4    2    4       1
     5    4    5       1
     6    5    6       2
     7    5    7       1
     8    7    8       2
     9    7   18       1
    10    8    9       1
    11    9   10      ar
    12    9   16      ar
    13   10   11      ar
    14   11   12       1
    15   11   13      ar
    16   13   14       1
    17   13   15      ar
    18   15   16      ar
    19   16   17       1
    20   17   18       1
    21   17   19       1
    22   19   20       1
    23   20   21       1
    24   20   22       1
    25   22   23       1
    26   22   24       1
    27   24   25       1
    28   24   26       1
    29   26   27       1
    30   27   28       1
    31   28   29      ar
    32   28   30      ar
    33   28   31      ar
    34    4   32       1
    35   10   33       1
    36   12   34       1
    37   12   35       1
    38   12   36       1
    39   14   37       1
    40   14   38       1
    41   14   39       1
    42   15   40       1
    43   19   41       1
    44   19   42       1
    45   20   43       1
    46   21   44       1
    47   22   45       1
    48   23   46       1
    49   24   47       1
    50   25   48       1
    51   26   49       1
    52   26   50       1
@<TRIPOS>SUBSTRUCTURE
     1 FMN300      1 GROUP             4 A     FMN     0 **** FMN A 300
