@<TRIPOS>MOLECULE
1r00_SAH_1_ligand
   46    48     1     0     0
SMALL
NO_CHARGES


@<TRIPOS>ATOM
     1 N           25.2980    30.8770    44.3560 N.4          1 SAH635   1.0000
     2 CA          24.8950    31.2790    43.0200 C.3          1 SAH635   0.0000
     3 CB          23.3930    31.0680    42.8980 C.3          1 SAH635   0.0000
     4 CG          22.9180    30.6260    41.5340 C.3          1 SAH635   0.0000
     5 SD          21.1150    30.7420    41.4740 S.3          1 SAH635   0.0000
     6 C           25.1900    32.7620    42.7640 C.2          1 SAH635   0.0000
     7 O           26.0140    33.3880    43.4520 O.co2        1 SAH635   0.0000
     8 OXT         24.5700    33.3530    41.8810 O.co2        1 SAH635  -1.0000
     9 C5'         20.6140    29.3260    42.4940 C.3          1 SAH635   0.0000
    10 C4'         21.2860    27.9720    42.2340 C.3          1 SAH635   0.0000
    11 O4'         20.6400    27.0000    43.0410 O.3          1 SAH635   0.0000
    12 C3'         21.2090    27.4390    40.8080 C.3          1 SAH635   0.0000
    13 O3'         22.4870    27.3140    40.2390 O.3          1 SAH635   0.0000
    14 C2'         20.5720    26.0650    40.9430 C.3          1 SAH635   0.0000
    15 O2'         21.1740    25.1080    40.1200 O.3          1 SAH635   0.0000
    16 C1'         20.7430    25.7350    42.4150 C.3          1 SAH635   0.0000
    17 N9          19.7990    24.7150    42.9370 N.pl3        1 SAH635   0.0000
    18 C8          18.4400    24.6770    42.8500 C.2          1 SAH635   0.0000
    19 N7          18.0060    23.5550    43.4770 N.2          1 SAH635   0.0000
    20 C5          19.0700    22.8720    43.9630 C.ar         1 SAH635   0.0000
    21 C6          19.2170    21.6690    44.6910 C.ar         1 SAH635   0.0000
    22 N6          18.1920    20.8850    45.0430 N.pl3        1 SAH635   0.0000
    23 N1          20.4850    21.2550    45.0340 N.ar         1 SAH635   0.0000
    24 C2          21.6000    22.0020    44.6850 C.ar         1 SAH635   0.0000
    25 N3          21.4360    23.1750    43.9830 N.ar         1 SAH635   0.0000
    26 C4          20.1970    23.6000    43.6190 C.ar         1 SAH635   0.0000
    27 H1          26.2840    31.0071    44.4600 H            1 SAH635   0.0000
    28 H2          24.8152    31.4341    45.0316 H            1 SAH635   0.0000
    29 HA          25.3703    30.7187    42.3416 H            1 SAH635   0.0000
    30 HB1         22.9397    31.9314    43.1194 H            1 SAH635   0.0000
    31 HB2         23.1231    30.3701    43.5614 H            1 SAH635   0.0000
    32 HG1         23.1989    29.6802    41.3712 H            1 SAH635   0.0000
    33 HG2         23.3157    31.2173    40.8324 H            1 SAH635   0.0000
    34 H5'1        19.6308    29.1991    42.3628 H            1 SAH635   0.0000
    35 H5'2        20.7946    29.5685    43.4472 H            1 SAH635   0.0000
    36 H4'         22.2466    28.0306    42.5056 H            1 SAH635   0.0000
    37 H3'         20.6351    28.0341    40.2454 H            1 SAH635   0.0000
    38 H12         23.0348    26.6807    40.7857 H            1 SAH635   0.0000
    39 H2'         19.5978    26.1262    40.7259 H            1 SAH635   0.0000
    40 H14         22.1409    25.0223    40.3605 H            1 SAH635   0.0000
    41 H1'         21.6737    25.3957    42.5513 H            1 SAH635   0.0000
    42 H16         17.8620    25.3586    42.4013 H            1 SAH635   0.0000
    43 H17         18.3593    20.0447    45.5586 H            1 SAH635   0.0000
    44 H18         17.2584    21.1392    44.7906 H            1 SAH635   0.0000
    45 H19         22.5154    21.6913    44.9410 H            1 SAH635   0.0000
    46 H20         25.0723    29.9130    44.4963 H            1 SAH635   0.0000
@<TRIPOS>BOND
     1    1    2       1
     2    2    3       1
     3    2    6       1
     4    3    4       1
     5    4    5       1
     6    5    9       1
     7    6    7      ar
     8    6    8      ar
     9    9   10       1
    10   10   11       1
    11   10   12       1
    12   11   16       1
    13   12   13       1
    14   12   14       1
    15   14   15       1
    16   14   16       1
    17   16   17       1
    18   17   18       1
    19   17   26       1
    20   18   19       2
    21   19   20       1
    22   20   21      ar
    23   20   26      ar
    24   21   22       1
    25   21   23      ar
    26   23   24      ar
    27   24   25      ar
    28   25   26      ar
    29    1   27       1
    30    1   28       1
    31    2   29       1
    32    3   30       1
    33    3   31       1
    34    4   32       1
    35    4   33       1
    36    1   46       1
    37    9   34       1
    38    9   35       1
    39   10   36       1
    40   12   37       1
    41   13   38       1
    42   14   39       1
    43   15   40       1
    44   16   41       1
    45   18   42       1
    46   22   43       1
    47   22   44       1
    48   24   45       1
@<TRIPOS>SUBSTRUCTURE
     1 SAH635      1 GROUP             4 A     SAH     0 **** SAH A 635
