@<TRIPOS>MOLECULE
1um0_FMN_1_ligand
   50    52     1     0     0
SMALL
NO_CHARGES


@<TRIPOS>ATOM
     1 N1          44.1880    50.0270    26.4340 N.2          1 FMN1400   0.0000
     2 C2          45.5010    49.6710    26.3110 C.2          1 FMN1400   0.0000
     3 O2          45.9950    49.2990    25.2240 O.2          1 FMN1400   0.0000
     4 N3          46.3510    49.7200    27.4460 N.pl3        1 FMN1400   0.0000
     5 C4          45.9270    50.1260    28.7550 C.2          1 FMN1400   0.0000
     6 O4          46.6810    50.1660    29.7530 O.2          1 FMN1400   0.0000
     7 C4A         44.5230    50.5040    28.8580 C.2          1 FMN1400   0.0000
     8 N5          44.0110    50.9380    30.0450 N.2          1 FMN1400   0.0000
     9 C5A         42.7810    51.5400    30.0920 C.ar         1 FMN1400   0.0000
    10 C6          42.3950    52.2340    31.2660 C.ar         1 FMN1400   0.0000
    11 C7          41.1050    52.8280    31.3380 C.ar         1 FMN1400   0.0000
    12 C7M         40.6620    53.5860    32.5890 C.3          1 FMN1400   0.0000
    13 C8          40.2290    52.6780    30.1650 C.ar         1 FMN1400   0.0000
    14 C8M         38.8440    53.2420    30.1000 C.3          1 FMN1400   0.0000
    15 C9          40.6380    51.9870    29.0010 C.ar         1 FMN1400   0.0000
    16 C9A         41.9260    51.3950    28.9080 C.ar         1 FMN1400   0.0000
    17 N10         42.3550    50.8290    27.7710 N.pl3        1 FMN1400   0.0000
    18 C10         43.6820    50.4320    27.6390 C.2          1 FMN1400   0.0000
    19 C1'         41.4860    50.6480    26.5250 C.3          1 FMN1400   0.0000
    20 C2'         40.2700    49.6490    26.6570 C.3          1 FMN1400   0.0000
    21 O2'         40.7060    48.3000    27.0050 O.3          1 FMN1400   0.0000
    22 C3'         39.4940    49.5510    25.3030 C.3          1 FMN1400   0.0000
    23 O3'         39.3180    50.9060    24.8180 O.3          1 FMN1400   0.0000
    24 C4'         38.0670    48.9390    25.3660 C.3          1 FMN1400   0.0000
    25 O4'         37.9140    47.8010    26.2590 O.3          1 FMN1400   0.0000
    26 C5'         37.6310    48.4800    23.9500 C.3          1 FMN1400   0.0000
    27 O5'         37.8110    49.5400    22.9950 O.3          1 FMN1400   0.0000
    28 P           38.6890    49.2130    21.6720 P.3          1 FMN1400   0.0000
    29 O1P         39.3170    50.4730    21.2110 O.co2        1 FMN1400   0.0000
    30 O2P         39.6140    48.0420    21.9600 O.co2        1 FMN1400  -1.0000
    31 O3P         37.5290    48.7780    20.6320 O.co2        1 FMN1400  -1.0000
    32 H1          47.3075    49.4543    27.3257 H            1 FMN1400   0.0000
    33 H2          43.0258    52.3055    32.0387 H            1 FMN1400   0.0000
    34 H7M1        39.7327    53.9313    32.4579 H            1 FMN1400   0.0000
    35 H7M2        40.6807    52.9697    33.3763 H            1 FMN1400   0.0000
    36 H7M3        41.2828    54.3530    32.7513 H            1 FMN1400   0.0000
    37 H8M1        38.4352    53.0207    29.2146 H            1 FMN1400   0.0000
    38 H8M2        38.2885    52.8470    30.8317 H            1 FMN1400   0.0000
    39 H8M3        38.8830    54.2351    30.2102 H            1 FMN1400   0.0000
    40 H9          40.0080    51.9136    28.2279 H            1 FMN1400   0.0000
    41 H1'1        42.0751    50.3148    25.7888 H            1 FMN1400   0.0000
    42 H1'2        41.1181    51.5444    26.2777 H            1 FMN1400   0.0000
    43 H2'         39.6486    49.9837    27.3654 H            1 FMN1400   0.0000
    44 H13         39.9089    47.7007    27.0787 H            1 FMN1400   0.0000
    45 H3'         40.0438    49.0356    24.6457 H            1 FMN1400   0.0000
    46 H15         38.8233    50.8874    23.9491 H            1 FMN1400   0.0000
    47 H4'         37.4367    49.6548    25.6666 H            1 FMN1400   0.0000
    48 H17         37.2332    48.0159    26.9592 H            1 FMN1400   0.0000
    49 H5'1        36.6661    48.2183    23.9722 H            1 FMN1400   0.0000
    50 H5'2        38.1835    47.6931    23.6752 H            1 FMN1400   0.0000
@<TRIPOS>BOND
     1    1    2       1
     2    1   18       2
     3    2    3       2
     4    2    4       1
     5    4    5       1
     6    5    6       2
     7    5    7       1
     8    7    8       2
     9    7   18       1
    10    8    9       1
    11    9   10      ar
    12    9   16      ar
    13   10   11      ar
    14   11   12       1
    15   11   13      ar
    16   13   14       1
    17   13   15      ar
    18   15   16      ar
    19   16   17       1
    20   17   18       1
    21   17   19       1
    22   19   20       1
    23   20   21       1
    24   20   22       1
    25   22   23       1
    26   22   24       1
    27   24   25       1
    28   24   26       1
    29   26   27       1
    30   27   28       1
    31   28   29      ar
    32   28   30      ar
    33   28   31      ar
    34    4   32       1
    35   10   33       1
    36   12   34       1
    37   12   35       1
    38   12   36       1
    39   14   37       1
    40   14   38       1
    41   14   39       1
    42   15   40       1
    43   19   41       1
    44   19   42       1
    45   20   43       1
    46   21   44       1
    47   22   45       1
    48   23   46       1
    49   24   47       1
    50   25   48       1
    51   26   49       1
    52   26   50       1
@<TRIPOS>SUBSTRUCTURE
     1 FMN1400     1 GROUP             4 A     FMN     0 **** FMN A1400
