@<TRIPOS>MOLECULE
3otb_DGT_2_ligand
   43    45     1     0     0
SMALL
NO_CHARGES


@<TRIPOS>ATOM
     1 PG         -47.1960    21.4880    29.6520 P.3          1 DGT301   0.0000
     2 O1G        -45.9300    22.0490    30.1860 O.co2        1 DGT301   0.0000
     3 O2G        -47.4530    20.0420    29.7840 O.co2        1 DGT301  -1.0000
     4 O3G        -47.3290    21.8330    28.1810 O.co2        1 DGT301  -1.0000
     5 O3B        -48.3480    22.2450    30.3760 O.3          1 DGT301   0.0000
     6 PB         -49.3530    21.7450    31.4660 P.3          1 DGT301   0.0000
     7 O1B        -50.6870    21.7740    30.8200 O.co2        1 DGT301   0.0000
     8 O2B        -48.8470    20.4770    32.0690 O.co2        1 DGT301  -1.0000
     9 O3A        -49.2550    22.8690    32.5590 O.3          1 DGT301   0.0000
    10 PA         -48.0650    23.1460    33.5620 P.3          1 DGT301   0.0000
    11 O1A        -47.6560    24.5340    33.3230 O.co2        1 DGT301   0.0000
    12 O2A        -47.0620    22.0620    33.4370 O.co2        1 DGT301  -1.0000
    13 O5'        -48.6730    23.0790    35.0360 O.3          1 DGT301   0.0000
    14 C5'        -48.9370    21.8320    35.6850 C.3          1 DGT301   0.0000
    15 C4'        -50.3880    21.4040    35.4840 C.3          1 DGT301   0.0000
    16 O4'        -50.5910    20.1580    36.1990 O.3          1 DGT301   0.0000
    17 C3'        -51.4650    22.3570    35.9900 C.3          1 DGT301   0.0000
    18 O3'        -51.9290    23.1370    34.8950 O.3          1 DGT301   0.0000
    19 C2'        -52.5940    21.4320    36.4380 C.3          1 DGT301   0.0000
    20 C1'        -51.8500    20.1590    36.8390 C.3          1 DGT301   0.0000
    21 N9         -51.6150    19.9310    38.2920 N.pl3        1 DGT301   0.0000
    22 C8         -50.3870    19.8460    38.9040 C.2          1 DGT301   0.0000
    23 N7         -50.4680    19.5730    40.1780 N.2          1 DGT301   0.0000
    24 C5         -51.8300    19.4870    40.4270 C.2          1 DGT301   0.0000
    25 C6         -52.5160    19.2060    41.6240 C.2          1 DGT301   0.0000
    26 O6         -52.0380    18.9490    42.7320 O.2          1 DGT301   0.0000
    27 N1         -53.8960    19.2340    41.4430 N.pl3        1 DGT301   0.0000
    28 C2         -54.5340    19.4930    40.2510 C.2          1 DGT301   0.0000
    29 N2         -55.8780    19.5000    40.2820 N.pl3        1 DGT301   0.0000
    30 N3         -53.9010    19.7340    39.1130 N.2          1 DGT301   0.0000
    31 C4         -52.5590    19.7210    39.2740 C.2          1 DGT301   0.0000
    32 H5'1       -48.7578    21.9290    36.6640 H            1 DGT301   0.0000
    33 H5'2       -48.3340    21.1313    35.3036 H            1 DGT301   0.0000
    34 H4'        -50.5398    21.2404    34.5092 H            1 DGT301   0.0000
    35 H3'        -51.1330    22.9291    36.7400 H            1 DGT301   0.0000
    36 H5         -52.9086    22.9823    34.7670 H            1 DGT301   0.0000
    37 H2'1       -53.2331    21.2550    35.6895 H            1 DGT301   0.0000
    38 H2'2       -53.0900    21.8193    37.2152 H            1 DGT301   0.0000
    39 H1'        -52.3698    19.3797    36.4889 H            1 DGT301   0.0000
    40 H9         -49.5207    19.9796    38.4227 H            1 DGT301   0.0000
    41 H10        -54.4691    19.0516    42.2419 H            1 DGT301   0.0000
    42 H11        -56.3965    19.6822    39.4465 H            1 DGT301   0.0000
    43 H12        -56.3593    19.3230    41.1405 H            1 DGT301   0.0000
@<TRIPOS>BOND
     1    1    2      ar
     2    1    3      ar
     3    1    4      ar
     4    1    5       1
     5    5    6       1
     6    6    7      ar
     7    6    8      ar
     8    6    9       1
     9    9   10       1
    10   10   11      ar
    11   10   12      ar
    12   10   13       1
    13   13   14       1
    14   14   15       1
    15   15   16       1
    16   15   17       1
    17   16   20       1
    18   17   18       1
    19   17   19       1
    20   19   20       1
    21   20   21       1
    22   21   22       1
    23   21   31       1
    24   22   23       2
    25   23   24       1
    26   24   25       1
    27   24   31       2
    28   25   26       2
    29   25   27       1
    30   27   28       1
    31   28   29       1
    32   28   30       2
    33   30   31       1
    34   29   43       1
    35   29   42       1
    36   27   41       1
    37   22   40       1
    38   14   32       1
    39   14   33       1
    40   15   34       1
    41   17   35       1
    42   18   36       1
    43   19   37       1
    44   19   38       1
    45   20   39       1
@<TRIPOS>SUBSTRUCTURE
     1 DGT301      1 GROUP             4 B     DGT     0 **** DGT B 301
