@<TRIPOS>MOLECULE
2l0x_GDP_1_ligand
   40    42     1     0     0
SMALL
NO_CHARGES


@<TRIPOS>ATOM
     1 PB          12.5370    -1.6630    -6.5190 P.3          1 GDP186   0.0000
     2 O1B         11.2890    -2.1310    -7.1800 O.co2        1 GDP186   0.0000
     3 O2B         12.1590    -0.5330    -5.4550 O.co2        1 GDP186  -1.0000
     4 O3B         13.5430    -0.9420    -7.5400 O.co2        1 GDP186  -1.0000
     5 O3A         13.3440    -2.7230    -5.6900 O.3          1 GDP186   0.0000
     6 PA          13.4280    -4.1370    -6.3940 P.3          1 GDP186   0.0000
     7 O1A         12.4360    -5.0350    -5.7640 O.co2        1 GDP186   0.0000
     8 O2A         13.1330    -3.9760    -7.9610 O.co2        1 GDP186  -1.0000
     9 O5'         14.9560    -4.6550    -6.2700 O.3          1 GDP186   0.0000
    10 C5'         16.0190    -3.7820    -5.8250 C.3          1 GDP186   0.0000
    11 C4'         16.5170    -4.1370    -4.4150 C.3          1 GDP186   0.0000
    12 O4'         15.4130    -4.4550    -3.5470 O.3          1 GDP186   0.0000
    13 C3'         17.4470    -5.3620    -4.3760 C.3          1 GDP186   0.0000
    14 O3'         18.7360    -4.9450    -3.8970 O.3          1 GDP186   0.0000
    15 C2'         16.7740    -6.2850    -3.3560 C.3          1 GDP186   0.0000
    16 O2'         17.7180    -6.9020    -2.4700 O.3          1 GDP186   0.0000
    17 C1'         15.9620    -5.3010    -2.5370 C.3          1 GDP186   0.0000
    18 N9          14.9320    -5.9940    -1.7220 N.pl3        1 GDP186   0.0000
    19 C8          13.6950    -6.3090    -2.1160 C.2          1 GDP186   0.0000
    20 N7          12.9950    -6.7550    -1.0690 N.2          1 GDP186   0.0000
    21 C5          13.8300    -6.8890    -0.0500 C.2          1 GDP186   0.0000
    22 C6          13.7010    -7.3790     1.2470 C.2          1 GDP186   0.0000
    23 O6          12.6320    -7.8340     1.6610 O.2          1 GDP186   0.0000
    24 N1          14.8050    -7.3570     2.1110 N.pl3        1 GDP186   0.0000
    25 C2          16.0420    -6.8660     1.6390 C.2          1 GDP186   0.0000
    26 N2          17.0980    -6.8320     2.4380 N.pl3        1 GDP186   0.0000
    27 N3          16.1460    -6.4290     0.3650 N.2          1 GDP186   0.0000
    28 C4          15.0760    -6.4110    -0.4620 C.2          1 GDP186   0.0000
    29 H5'1        15.6804    -2.8411    -5.8186 H            1 GDP186   0.0000
    30 H5'2        16.7845    -3.8564    -6.4642 H            1 GDP186   0.0000
    31 H4'         17.0057    -3.3499    -4.0387 H            1 GDP186   0.0000
    32 H3'         17.5146    -5.7976    -5.2736 H            1 GDP186   0.0000
    33 H5          18.9581    -5.4446    -3.0597 H            1 GDP186   0.0000
    34 H2'         16.1899    -6.9631    -3.8021 H            1 GDP186   0.0000
    35 H7          17.5094    -6.6420    -1.5272 H            1 GDP186   0.0000
    36 H1'         16.5674    -4.7721    -1.9422 H            1 GDP186   0.0000
    37 H9          13.3470    -6.2242    -3.0496 H            1 GDP186   0.0000
    38 H10         17.9713    -6.4832     2.0979 H            1 GDP186   0.0000
    39 H11         17.0219    -7.1552     3.3813 H            1 GDP186   0.0000
    40 H12         14.7173    -7.6855     3.0514 H            1 GDP186   0.0000
@<TRIPOS>BOND
     1    1    2      ar
     2    1    3      ar
     3    1    4      ar
     4    1    5       1
     5    5    6       1
     6    6    7      ar
     7    6    8      ar
     8    6    9       1
     9    9   10       1
    10   10   11       1
    11   11   12       1
    12   11   13       1
    13   12   17       1
    14   13   14       1
    15   13   15       1
    16   15   16       1
    17   15   17       1
    18   17   18       1
    19   18   19       1
    20   18   28       1
    21   19   20       2
    22   20   21       1
    23   21   22       1
    24   21   28       2
    25   22   23       2
    26   22   24       1
    27   24   25       1
    28   25   26       1
    29   25   27       2
    30   27   28       1
    31   24   40       1
    32   26   39       1
    33   26   38       1
    34   10   29       1
    35   10   30       1
    36   11   31       1
    37   13   32       1
    38   14   33       1
    39   15   34       1
    40   16   35       1
    41   17   36       1
    42   19   37       1
@<TRIPOS>SUBSTRUCTURE
     1 GDP186      1 GROUP             4 A     GDP     0 **** GDP A 186
