@<TRIPOS>MOLECULE
2ilu_NDP_1_ligand
   74    78     1     0     0
SMALL
NO_CHARGES


@<TRIPOS>ATOM
     1 PA          32.4140    27.8450    62.9050 P.3          1 NDP482   0.0000
     2 O1A         31.0960    28.5140    62.8720 O.co2        1 NDP482   0.0000
     3 O2A         32.4880    26.4040    62.6200 O.co2        1 NDP482  -1.0000
     4 O5B         32.9900    28.1950    64.3150 O.3          1 NDP482   0.0000
     5 C5B         34.3090    27.7500    64.6560 C.3          1 NDP482   0.0000
     6 C4B         34.5670    28.1030    66.1160 C.3          1 NDP482   0.0000
     7 O4B         33.2150    28.1660    66.7480 O.3          1 NDP482   0.0000
     8 C3B         35.2530    26.9490    66.7670 C.3          1 NDP482   0.0000
     9 O3B         35.9150    27.3700    67.9670 O.3          1 NDP482   0.0000
    10 C2B         34.0820    26.0600    67.0100 C.3          1 NDP482   0.0000
    11 O2B         34.3410    24.8590    67.6730 O.3          1 NDP482   0.0000
    12 C1B         33.1240    27.0290    67.6610 C.3          1 NDP482   0.0000
    13 N9A         31.7360    26.5600    67.6760 N.pl3        1 NDP482   0.0000
    14 C8A         31.1150    25.7940    66.7010 C.2          1 NDP482   0.0000
    15 N7A         29.8770    25.4320    67.0190 N.2          1 NDP482   0.0000
    16 C5A         29.6820    25.9830    68.2400 C.ar         1 NDP482   0.0000
    17 C6A         28.5500    25.9600    69.1110 C.ar         1 NDP482   0.0000
    18 N6A         27.4220    25.3230    68.8160 N.pl3        1 NDP482   0.0000
    19 N1A         28.6880    26.6380    70.2960 N.ar         1 NDP482   1.0000
    20 C2A         29.8190    27.2970    70.6290 C.ar         1 NDP482   0.0000
    21 N3A         30.9530    27.3790    69.8670 N.ar         1 NDP482   0.0000
    22 C4A         30.8280    26.6980    68.6630 C.ar         1 NDP482   0.0000
    23 O3          33.4280    28.6430    61.9350 O.3          1 NDP482   0.0000
    24 PN          34.7210    28.3250    61.0700 P.3          1 NDP482   0.0000
    25 O1N         35.5320    27.2970    61.7710 O.co2        1 NDP482   0.0000
    26 O2N         35.3580    29.6540    60.8300 O.co2        1 NDP482  -1.0000
    27 O5D         34.2180    27.7960    59.6280 O.3          1 NDP482   0.0000
    28 C5D         33.2370    26.7340    59.4670 C.3          1 NDP482   0.0000
    29 C4D         33.9080    25.3940    59.2900 C.3          1 NDP482   0.0000
    30 O4D         33.5720    24.4930    60.3950 O.3          1 NDP482   0.0000
    31 C3D         33.5330    24.5970    58.0280 C.3          1 NDP482   0.0000
    32 O3D         34.1180    25.0750    56.8460 O.3          1 NDP482   0.0000
    33 C2D         33.9070    23.1770    58.4340 C.3          1 NDP482   0.0000
    34 O2D         35.2870    22.9560    58.1400 O.3          1 NDP482   0.0000
    35 C1D         33.5780    23.1460    59.9360 C.3          1 NDP482   0.0000
    36 N1N         32.2520    22.4740    60.2640 N.ar         1 NDP482   1.0000
    37 C2N         32.2510    21.1100    60.5130 C.ar         1 NDP482   0.0000
    38 C3N         31.0810    20.4090    60.8210 C.ar         1 NDP482   0.0000
    39 C7N         31.0730    18.9030    61.0960 C.2          1 NDP482   0.0000
    40 O7N         31.6540    18.1420    60.3170 O.2          1 NDP482   0.0000
    41 N7N         30.4220    18.4990    62.2030 N.am         1 NDP482   0.0000
    42 C4N         29.8270    21.1380    60.8800 C.ar         1 NDP482   0.0000
    43 C5N         29.8300    22.5320    60.6260 C.ar         1 NDP482   0.0000
    44 C6N         31.0100    23.2030    60.3220 C.ar         1 NDP482   0.0000
    45 P2B         34.9900    23.6180    66.8500 P.3          1 NDP482   0.0000
    46 O1X         36.3640    24.0370    66.4320 O.co2        1 NDP482   0.0000
    47 O2X         34.9270    22.5060    67.8590 O.co2        1 NDP482  -1.0000
    48 O3X         34.0700    23.3780    65.6780 O.co2        1 NDP482  -1.0000
    49 H5B1        34.9816    28.2062    64.0733 H            1 NDP482   0.0000
    50 H5B2        34.3756    26.7602    64.5300 H            1 NDP482   0.0000
    51 H4B         35.0766    28.9574    66.2181 H            1 NDP482   0.0000
    52 H3B         35.8999    26.5194    66.1369 H            1 NDP482   0.0000
    53 H5          36.5950    28.0688    67.7450 H            1 NDP482   0.0000
    54 H2B         33.7005    25.8256    66.1158 H            1 NDP482   0.0000
    55 H1B         33.4309    27.2781    68.5796 H            1 NDP482   0.0000
    56 H8A         31.5567    25.5386    65.8410 H            1 NDP482   0.0000
    57 H6A1        26.6570    25.3366    69.4599 H            1 NDP482   0.0000
    58 H6A2        27.3380    24.8299    67.9501 H            1 NDP482   0.0000
    59 H2A         29.8287    27.7672    71.5115 H            1 NDP482   0.0000
    60 H5D1        32.6764    26.9270    58.6617 H            1 NDP482   0.0000
    61 H5D2        32.6542    26.7023    60.2790 H            1 NDP482   0.0000
    62 H4D         34.8979    25.5357    59.2898 H            1 NDP482   0.0000
    63 H3D         32.5396    24.6369    57.9202 H            1 NDP482   0.0000
    64 H16         33.8265    24.5069    56.0764 H            1 NDP482   0.0000
    65 H2D         33.3393    22.5166    57.9425 H            1 NDP482   0.0000
    66 H18         35.4427    23.0780    57.1598 H            1 NDP482   0.0000
    67 H1D         34.3081    22.6535    60.4098 H            1 NDP482   0.0000
    68 H2N         33.1164    20.6107    60.4709 H            1 NDP482   0.0000
    69 H7N1        30.3835    17.5267    62.4336 H            1 NDP482   0.0000
    70 H7N2        29.9769    19.1712    62.7947 H            1 NDP482   0.0000
    71 H4N         28.9738    20.6635    61.0967 H            1 NDP482   0.0000
    72 H5N         28.9704    23.0414    60.6659 H            1 NDP482   0.0000
    73 H6N         30.9966    24.1870    60.1444 H            1 NDP482   0.0000
    74 H1A         27.9214    26.6444    70.9380 H            1 NDP482   0.0000
@<TRIPOS>BOND
     1    1    2      ar
     2    1    3      ar
     3    1    4       1
     4    1   23       1
     5    4    5       1
     6    5    6       1
     7    6    7       1
     8    6    8       1
     9    7   12       1
    10    8    9       1
    11    8   10       1
    12   10   11       1
    13   10   12       1
    14   11   45       1
    15   12   13       1
    16   13   14       1
    17   13   22       1
    18   14   15       2
    19   15   16       1
    20   16   17      ar
    21   16   22      ar
    22   17   18       1
    23   17   19      ar
    24   19   20      ar
    25   20   21      ar
    26   21   22      ar
    27   23   24       1
    28   24   25      ar
    29   24   26      ar
    30   24   27       1
    31   27   28       1
    32   28   29       1
    33   29   30       1
    34   29   31       1
    35   30   35       1
    36   31   32       1
    37   31   33       1
    38   33   34       1
    39   33   35       1
    40   35   36       1
    41   36   37      ar
    42   36   44      ar
    43   37   38      ar
    44   38   39       1
    45   38   42      ar
    46   39   40       2
    47   39   41      am
    48   42   43      ar
    49   43   44      ar
    50   45   46      ar
    51   45   47      ar
    52   45   48      ar
    53   43   72       1
    54    5   49       1
    55    5   50       1
    56    6   51       1
    57    8   52       1
    58    9   53       1
    59   10   54       1
    60   12   55       1
    61   14   56       1
    62   18   57       1
    63   18   58       1
    64   20   59       1
    65   44   73       1
    66   28   60       1
    67   28   61       1
    68   29   62       1
    69   31   63       1
    70   32   64       1
    71   33   65       1
    72   34   66       1
    73   35   67       1
    74   37   68       1
    75   41   69       1
    76   41   70       1
    77   42   71       1
    78   19   74       1
@<TRIPOS>SUBSTRUCTURE
     1 NDP482      1 GROUP             4 A     NDP     0 **** NDP A 482
