@<TRIPOS>MOLECULE
3t4q_ZEA_1_ligand
   30    31     1     0     0
SMALL
NO_CHARGES


@<TRIPOS>ATOM
     1 O16          6.5470    17.8500    22.2420 O.3          1 ZEA400   0.0000
     2 C14          5.7540    18.7160    21.5070 C.3          1 ZEA400   0.0000
     3 C13          5.0490    19.8210    22.2570 C.2          1 ZEA400   0.0000
     4 C15          4.4120    20.9210    21.4870 C.3          1 ZEA400   0.0000
     5 C12          5.3520    20.0270    23.6020 C.2          1 ZEA400   0.0000
     6 C11          4.6100    21.0900    24.3870 C.3          1 ZEA400   0.0000
     7 N10          5.5010    21.6660    25.3830 N.pl3        1 ZEA400   0.0000
     8 C6           5.0710    22.8280    26.1570 C.ar         1 ZEA400   0.0000
     9 C5           6.0180    23.5760    26.9220 C.ar         1 ZEA400   0.0000
    10 N9           7.3810    23.4630    27.1350 N.pl3        1 ZEA400   0.0000
    11 C4           5.5860    24.6650    27.6360 C.ar         1 ZEA400   0.0000
    12 N7           6.6870    25.2070    28.2790 N.2          1 ZEA400   0.0000
    13 C8           7.7640    24.4630    27.9620 C.2          1 ZEA400   0.0000
    14 N3           4.2450    25.0060    27.5970 N.ar         1 ZEA400   1.0000
    15 C2           3.3660    24.2830    26.8670 C.ar         1 ZEA400   0.0000
    16 N1           3.7730    23.2040    26.1540 N.ar         1 ZEA400   0.0000
    17 H1           7.2730    18.3667    22.6958 H            1 ZEA400   0.0000
    18 H2           5.0523    18.1672    21.0526 H            1 ZEA400   0.0000
    19 H3           6.3382    19.1463    20.8188 H            1 ZEA400   0.0000
    20 H4           3.9898    21.5699    22.1200 H            1 ZEA400   0.0000
    21 H5           5.1057    21.3910    20.9412 H            1 ZEA400   0.0000
    22 H6           3.7119    20.5422    20.8817 H            1 ZEA400   0.0000
    23 H7           6.0569    19.4750    24.0475 H            1 ZEA400   0.0000
    24 H8           3.8213    20.6780    24.8434 H            1 ZEA400   0.0000
    25 H9           4.2976    21.8074    23.7643 H            1 ZEA400   0.0000
    26 H10          6.4051    21.2675    25.5372 H            1 ZEA400   0.0000
    27 H11          8.6964    24.6238    28.2857 H            1 ZEA400   0.0000
    28 H12          2.4018    24.5479    26.8528 H            1 ZEA400   0.0000
    29 H13          7.9793    22.7631    26.7450 H            1 ZEA400   0.0000
    30 H14          3.9220    25.7976    28.1156 H            1 ZEA400   0.0000
@<TRIPOS>BOND
     1    1    2       1
     2    2    3       1
     3    3    4       1
     4    3    5       2
     5    5    6       1
     6    6    7       1
     7    7    8       1
     8    8    9      ar
     9    8   16      ar
    10    9   10       1
    11    9   11      ar
    12   10   13       1
    13   11   12       1
    14   11   14      ar
    15   12   13       2
    16   14   15      ar
    17   15   16      ar
    18    1   17       1
    19    2   18       1
    20    2   19       1
    21    4   20       1
    22    4   21       1
    23    4   22       1
    24    5   23       1
    25    6   24       1
    26    6   25       1
    27    7   26       1
    28   15   28       1
    29   13   27       1
    30   10   29       1
    31   14   30       1
@<TRIPOS>SUBSTRUCTURE
     1 ZEA400      1 GROUP             4 A     ZEA     0 **** ZEA A 400
