@<TRIPOS>MOLECULE
1uoq_GLU_PHE_SER_PRO_1_ligand
   63    64     4     0     0
SMALL
NO_CHARGES


@<TRIPOS>ATOM
     1 N           42.7670    39.5850    89.7450 N.4          1 GLU723   1.0000
     2 CA          41.9590    38.8450    88.6980 C.3          1 GLU723   0.0000
     3 C           42.2150    39.2440    87.2590 C.2          1 GLU723   0.0000
     4 O           42.2600    40.4280    86.9190 O.2          1 GLU723   0.0000
     5 CB          40.4660    38.8780    88.8870 C.3          1 GLU723   0.0000
     6 CG          39.8500    37.6700    88.1690 C.3          1 GLU723   0.0000
     7 CD          40.4480    36.3670    88.7290 C.2          1 GLU723   0.0000
     8 OE1         40.0500    35.9870    89.8880 O.co2        1 GLU723   0.0000
     9 OE2         41.3450    35.7610    88.0420 O.co2        1 GLU723  -1.0000
    10 H1          43.7409    39.5047    89.5326 H            1 GLU723   0.0000
    11 H2          42.5049    40.5500    89.7477 H            1 GLU723   0.0000
    12 HA          42.2260    37.8840    88.7705 H            1 GLU723   0.0000
    13 HB1         40.0968    39.7231    88.5002 H            1 GLU723   0.0000
    14 HB2         40.2497    38.8355    89.8624 H            1 GLU723   0.0000
    15 HG1         40.0456    37.7308    87.1902 H            1 GLU723   0.0000
    16 HG2         38.8602    37.6688    88.3116 H            1 GLU723   0.0000
    17 N           42.3620    38.2230    86.4340 N.am         2 PHE724   0.0000
    18 CA          42.8360    38.3960    85.0850 C.3          2 PHE724   0.0000
    19 C           41.9050    37.5270    84.1720 C.2          2 PHE724   0.0000
    20 O           42.2620    37.1720    83.0950 O.2          2 PHE724   0.0000
    21 CB          44.3300    37.9880    85.0100 C.3          2 PHE724   0.0000
    22 CG          44.6770    36.7420    85.8560 C.ar         2 PHE724   0.0000
    23 CD1         44.4150    35.4610    85.3660 C.ar         2 PHE724   0.0000
    24 CD2         45.1890    36.8810    87.1620 C.ar         2 PHE724   0.0000
    25 CE1         44.6940    34.2960    86.1490 C.ar         2 PHE724   0.0000
    26 CE2         45.4880    35.7470    87.9960 C.ar         2 PHE724   0.0000
    27 CZ          45.2420    34.4260    87.4900 C.ar         2 PHE724   0.0000
    28 H8          42.1376    37.3030    86.7554 H            2 PHE724   0.0000
    29 H9          42.7450    39.3576    84.8259 H            2 PHE724   0.0000
    30 H10         44.8834    38.7547    85.3355 H            2 PHE724   0.0000
    31 H11         44.5569    37.7947    84.0555 H            2 PHE724   0.0000
    32 HD1         44.0252    35.3557    84.4511 H            2 PHE724   0.0000
    33 HD2         45.3501    37.8001    87.5216 H            2 PHE724   0.0000
    34 HE1         44.5112    33.3879    85.7722 H            2 PHE724   0.0000
    35 HE2         45.8616    35.8771    88.9144 H            2 PHE724   0.0000
    36 HZ          45.4419    33.6179    88.0441 H            2 PHE724   0.0000
    37 N           40.6990    37.2400    84.6440 N.am         3 SER725   0.0000
    38 CA          39.6800    36.6180    83.8160 C.3          3 SER725   0.0000
    39 C           39.1570    37.6620    82.7950 C.2          3 SER725   0.0000
    40 O           39.3180    38.8870    83.0010 O.2          3 SER725   0.0000
    41 CB          38.5650    36.0730    84.7320 C.3          3 SER725   0.0000
    42 OG          37.6960    37.1190    85.2340 O.3          3 SER725   0.0000
    43 H17         40.4852    37.4578    85.5963 H            3 SER725   0.0000
    44 H18         40.0903    35.8548    83.3168 H            3 SER725   0.0000
    45 H19         38.9880    35.6073    85.5093 H            3 SER725   0.0000
    46 H20         38.0137    35.4204    84.2122 H            3 SER725   0.0000
    47 HG          36.9931    36.7158    85.8200 H            3 SER725   0.0000
    48 N           38.5220    37.2170    81.7060 N.am         4 PRO726   0.0000
    49 CA          37.9250    38.1700    80.7760 C.3          4 PRO726   0.0000
    50 C           36.5620    38.5780    81.3340 C.2          4 PRO726   0.0000
    51 O           35.5970    37.8020    81.1640 O.co2        4 PRO726   0.0000
    52 CB          37.8040    37.3610    79.4860 C.3          4 PRO726   0.0000
    53 CG          37.6170    36.0010    79.9260 C.3          4 PRO726   0.0000
    54 CD          38.3860    35.8210    81.2330 C.3          4 PRO726   0.0000
    55 OXT         36.4330    39.6980    81.9480 O.co2        4 PRO726  -1.0000
    56 H22         38.5154    38.9669    80.6478 H            4 PRO726   0.0000
    57 H23         37.0192    37.6692    78.9483 H            4 PRO726   0.0000
    58 H24         38.6365    37.4435    78.9381 H            4 PRO726   0.0000
    59 H25         36.6445    35.8232    80.0766 H            4 PRO726   0.0000
    60 H26         37.9683    35.3690    79.2352 H            4 PRO726   0.0000
    61 H27         37.8696    35.2654    81.8847 H            4 PRO726   0.0000
    62 H28         39.2803    35.4028    81.0736 H            4 PRO726   0.0000
    63 H29         42.5884    39.1885    90.6455 H            4 PRO726   0.0000
@<TRIPOS>BOND
     1    1    2       1
     2    2    5       1
     3    2    3       1
     4    5    6       1
     5    6    7       1
     6    7    8      ar
     7    7    9      ar
     8    3    4       2
     9    1   10       1
    10    1   11       1
    11    2   12       1
    12    3   17      am
    13    5   13       1
    14    5   14       1
    15    6   15       1
    16    6   16       1
    17   17   18       1
    18   18   21       1
    19   18   19       1
    20   21   22       1
    21   22   23      ar
    22   22   24      ar
    23   23   25      ar
    24   25   27      ar
    25   27   26      ar
    26   26   24      ar
    27   19   20       2
    28   27   36       1
    29   17   28       1
    30   18   29       1
    31   19   37      am
    32   21   30       1
    33   21   31       1
    34   23   32       1
    35   24   33       1
    36   25   34       1
    37   26   35       1
    38   37   38       1
    39   38   41       1
    40   38   39       1
    41   41   42       1
    42   39   40       2
    43   42   47       1
    44   37   43       1
    45   38   44       1
    46   39   48      am
    47   41   45       1
    48   41   46       1
    49   48   54       1
    50   48   49       1
    51   54   53       1
    52   53   52       1
    53   52   49       1
    54   49   50       1
    55   50   51      ar
    56   50   55      ar
    57   54   62       1
    58   49   56       1
    59   52   57       1
    60   52   58       1
    61   53   59       1
    62   53   60       1
    63   54   61       1
    64    1   63       1
@<TRIPOS>SUBSTRUCTURE
     1 GLU723      1 RESIDUE           4 B     GLU     0 **** GLU B 723
     2 PHE724     17 RESIDUE           4 B     PHE     0 **** PHE B 724
     3 SER725     37 RESIDUE           4 B     SER     0 **** SER B 725
     4 PRO726     48 RESIDUE           4 B     PRO     0 **** PRO B 726
