@<TRIPOS>MOLECULE
4d7s_PCG_1_ligand
   35    38     1     0     0
SMALL
NO_CHARGES


@<TRIPOS>ATOM
     1 PA         -16.8350   -39.3310   -12.0060 P.3          1 PCG1423   0.0000
     2 O1A        -16.7740   -39.8520   -13.3660 O.3          1 PCG1423   0.0000
     3 O2A        -17.7680   -39.3900   -10.6960 O.2          1 PCG1423   0.0000
     4 O5'        -15.7660   -40.2060   -11.1240 O.3          1 PCG1423   0.0000
     5 C5'        -15.0830   -39.5990   -10.0590 C.3          1 PCG1423   0.0000
     6 C4'        -14.3830   -38.5090   -10.8010 C.3          1 PCG1423   0.0000
     7 O4'        -13.4330   -37.9540    -9.9400 O.3          1 PCG1423   0.0000
     8 C3'        -15.4820   -37.4610   -10.9830 C.3          1 PCG1423   0.0000
     9 O3'        -16.3060   -37.7800   -12.0460 O.3          1 PCG1423   0.0000
    10 C2'        -14.5550   -36.3100   -11.2860 C.3          1 PCG1423   0.0000
    11 O2'        -15.1850   -35.2520   -10.5610 O.3          1 PCG1423   0.0000
    12 C1'        -13.2550   -36.6730   -10.4860 C.3          1 PCG1423   0.0000
    13 N9         -12.2230   -36.8680   -11.4880 N.pl3        1 PCG1423   0.0000
    14 C8         -11.9910   -37.7110   -12.6400 C.2          1 PCG1423   0.0000
    15 N7         -10.8420   -37.4710   -13.2560 N.2          1 PCG1423   0.0000
    16 C5         -10.2500   -36.4580   -12.5370 C.2          1 PCG1423   0.0000
    17 C6          -9.0000   -35.6990   -12.6180 C.2          1 PCG1423   0.0000
    18 O6          -8.1400   -35.8670   -13.4720 O.2          1 PCG1423   0.0000
    19 N1          -8.7520   -34.6800   -11.6270 N.pl3        1 PCG1423   0.0000
    20 C2          -9.6220   -34.4430   -10.6820 C.2          1 PCG1423   0.0000
    21 N2          -9.5140   -33.4820    -9.6530 N.pl3        1 PCG1423   0.0000
    22 N3         -10.8770   -35.1160   -10.4930 N.2          1 PCG1423   0.0000
    23 C4         -11.0550   -36.0820   -11.4770 C.2          1 PCG1423   0.0000
    24 H1A        -17.5816   -39.5527   -13.8742 H            1 PCG1423   0.0000
    25 H5'1       -14.4381   -40.2271    -9.6236 H            1 PCG1423   0.0000
    26 H5'2       -15.7119   -39.2371    -9.3709 H            1 PCG1423   0.0000
    27 H4'        -13.9907   -38.8171   -11.6677 H            1 PCG1423   0.0000
    28 H3'        -15.9996   -37.3121   -10.1405 H            1 PCG1423   0.0000
    29 H2'        -14.4137   -36.1279   -12.2591 H            1 PCG1423   0.0000
    30 H7         -15.4419   -34.5213   -11.1935 H            1 PCG1423   0.0000
    31 H1'        -13.0116   -35.9858    -9.8015 H            1 PCG1423   0.0000
    32 H9         -12.6378   -38.4105   -12.9439 H            1 PCG1423   0.0000
    33 H10         -7.9051   -34.1496   -11.6641 H            1 PCG1423   0.0000
    34 H11        -10.2463   -33.3871    -8.9786 H            1 PCG1423   0.0000
    35 H12         -8.7052   -32.8964    -9.5987 H            1 PCG1423   0.0000
@<TRIPOS>BOND
     1    1    2       1
     2    1    3       2
     3    1    4       1
     4    1    9       1
     5    4    5       1
     6    5    6       1
     7    6    7       1
     8    6    8       1
     9    7   12       1
    10    8    9       1
    11    8   10       1
    12   10   11       1
    13   10   12       1
    14   12   13       1
    15   13   14       1
    16   13   23       1
    17   14   15       2
    18   15   16       1
    19   16   17       1
    20   16   23       2
    21   17   18       2
    22   17   19       1
    23   19   20       1
    24   20   21       1
    25   20   22       2
    26   22   23       1
    27    2   24       1
    28    5   25       1
    29    5   26       1
    30    6   27       1
    31    8   28       1
    32   10   29       1
    33   11   30       1
    34   12   31       1
    35   14   32       1
    36   19   33       1
    37   21   34       1
    38   21   35       1
@<TRIPOS>SUBSTRUCTURE
     1 PCG1423     1 GROUP             4 A     PCG     0 **** PCG A1423
