@<TRIPOS>MOLECULE
1ltz_HBI_1_ligand
   29    30     1     0     0
SMALL
NO_CHARGES


@<TRIPOS>ATOM
     1 N1         -15.7330    11.4100    29.6010 N.2          1 HBI500   0.0000
     2 N2         -13.9560    11.9810    31.0590 N.pl3        1 HBI500   0.0000
     3 C2         -14.4450    11.7590    29.8110 C.2          1 HBI500   0.0000
     4 N3         -13.5620    11.8610    28.7600 N.pl3        1 HBI500  -1.0000
     5 C4         -13.9140    11.5740    27.4830 C.2          1 HBI500   0.0000
     6 O4         -13.0790    11.5890    26.5370 O.2          1 HBI500   0.0000
     7 C4A        -15.2590    11.1710    27.1940 C.2          1 HBI500   0.0000
     8 C8A        -16.1430    11.1290    28.3270 C.2          1 HBI500   0.0000
     9 N8         -17.4490    10.7990    28.0980 N.pl3        1 HBI500   0.0000
    10 C7         -17.9690    10.8770    26.7990 C.3          1 HBI500   0.0000
    11 C6         -17.0500    10.5000    25.6940 C.2          1 HBI500   0.0000
    12 N5         -15.6460    10.7410    25.9310 N.2          1 HBI500   0.0000
    13 C9         -17.4050     9.8010    24.3630 C.3          1 HBI500   0.0000
    14 O9         -18.2860     8.6730    24.6640 O.3          1 HBI500   0.0000
    15 C10        -18.1440    10.6790    23.3530 C.3          1 HBI500   0.0000
    16 O10        -19.4540    11.0180    23.9080 O.3          1 HBI500   0.0000
    17 C11        -17.3680    11.9530    23.0990 C.3          1 HBI500   0.0000
    18 H1         -12.9975    12.2382    31.1820 H            1 HBI500   0.0000
    19 H2         -14.5546    11.8872    31.8546 H            1 HBI500   0.0000
    20 H3         -18.0318    10.5028    28.8548 H            1 HBI500   0.0000
    21 H4         -18.2594    11.8213    26.6440 H            1 HBI500   0.0000
    22 H5         -18.7639    10.2720    26.7530 H            1 HBI500   0.0000
    23 H6         -16.5660     9.4559    23.9423 H            1 HBI500   0.0000
    24 H7         -19.1162     9.0081    25.1096 H            1 HBI500   0.0000
    25 H8         -18.2611    10.1793    22.4947 H            1 HBI500   0.0000
    26 H9         -19.5331    12.0112    23.9931 H            1 HBI500   0.0000
    27 H10        -17.8615    12.5176    22.4375 H            1 HBI500   0.0000
    28 H11        -17.2651    12.4572    23.9564 H            1 HBI500   0.0000
    29 H12        -16.4646    11.7261    22.7352 H            1 HBI500   0.0000
@<TRIPOS>BOND
     1    1    3       2
     2    1    8       1
     3    2    3       1
     4    3    4       1
     5    4    5       1
     6    5    6       2
     7    5    7       1
     8    7    8       2
     9    7   12       1
    10    8    9       1
    11    9   10       1
    12   10   11       1
    13   11   12       2
    14   11   13       1
    15   13   14       1
    16   13   15       1
    17   15   16       1
    18   15   17       1
    19   17   29       1
    20    2   18       1
    21    2   19       1
    22    9   20       1
    23   10   21       1
    24   10   22       1
    25   13   23       1
    26   14   24       1
    27   15   25       1
    28   16   26       1
    29   17   27       1
    30   17   28       1
@<TRIPOS>SUBSTRUCTURE
     1 HBI500      1 GROUP             4 A     HBI     0 **** HBI A 500
