@<TRIPOS>MOLECULE
2w9s_TOP_5_ligand
   40    41     1     0     0
SMALL
NO_CHARGES


@<TRIPOS>ATOM
     1 C1         -14.0040    24.1750    10.4650 C.ar         1 TOP1160   0.0000
     2 N2         -14.8070    25.1570     9.9640 N.ar         1 TOP1160   1.0000
     3 C3         -15.4720    25.0240     8.7990 C.ar         1 TOP1160   0.0000
     4 N4         -16.2790    26.0280     8.3490 N.pl3        1 TOP1160   0.0000
     5 N5         -15.3630    23.8930     8.0720 N.ar         1 TOP1160   0.0000
     6 C6         -14.5950    22.8520     8.4980 C.ar         1 TOP1160   0.0000
     7 N7         -14.4510    21.7250     7.7760 N.pl3        1 TOP1160   0.0000
     8 C8         -13.8550    22.9860     9.7700 C.ar         1 TOP1160   0.0000
     9 C9         -13.0060    21.8120    10.2280 C.3          1 TOP1160   0.0000
    10 C10        -12.5710    21.9840    11.6670 C.ar         1 TOP1160   0.0000
    11 C11        -11.2070    22.0860    11.8730 C.ar         1 TOP1160   0.0000
    12 C12        -10.7560    22.2150    13.1790 C.ar         1 TOP1160   0.0000
    13 O13         -9.4240    22.3070    13.4760 O.3          1 TOP1160   0.0000
    14 C14         -8.4130    22.0480    12.4950 C.3          1 TOP1160   0.0000
    15 C15        -11.6320    22.2670    14.2120 C.ar         1 TOP1160   0.0000
    16 O16        -11.1410    22.4440    15.4820 O.3          1 TOP1160   0.0000
    17 C17         -9.8010    21.9820    15.7500 C.3          1 TOP1160   0.0000
    18 C18        -12.9690    22.2100    14.0160 C.ar         1 TOP1160   0.0000
    19 O19        -13.7410    22.2870    15.1420 O.3          1 TOP1160   0.0000
    20 C20        -15.1640    22.0830    15.0910 C.3          1 TOP1160   0.0000
    21 C21        -13.4840    22.0600    12.7290 C.ar         1 TOP1160   0.0000
    22 H1         -13.5242    24.3129    11.3315 H            1 TOP1160   0.0000
    23 H2         -16.7704    25.9249     7.4842 H            1 TOP1160   0.0000
    24 H3         -16.3791    26.8669     8.8840 H            1 TOP1160   0.0000
    25 H4         -13.8789    20.9805     8.1200 H            1 TOP1160   0.0000
    26 H5         -14.9162    21.6323     6.8956 H            1 TOP1160   0.0000
    27 H6         -12.1947    21.7490     9.6467 H            1 TOP1160   0.0000
    28 H7         -13.5405    20.9708    10.1466 H            1 TOP1160   0.0000
    29 H8         -10.5664    22.0674    11.1054 H            1 TOP1160   0.0000
    30 H9          -7.5099    22.1679    12.9074 H            1 TOP1160   0.0000
    31 H10         -8.5051    21.1099    12.1611 H            1 TOP1160   0.0000
    32 H11         -8.5182    22.6854    11.7317 H            1 TOP1160   0.0000
    33 H12         -9.5682    22.1700    16.7042 H            1 TOP1160   0.0000
    34 H13         -9.7478    20.9977    15.5816 H            1 TOP1160   0.0000
    35 H14         -9.1580    22.4581    15.1500 H            1 TOP1160   0.0000
    36 H15        -15.5477    22.1796    16.0094 H            1 TOP1160   0.0000
    37 H16        -15.5766    22.7624    14.4842 H            1 TOP1160   0.0000
    38 H17        -15.3569    21.1652    14.7440 H            1 TOP1160   0.0000
    39 H18        -14.4697    22.0084    12.5688 H            1 TOP1160   0.0000
    40 H19        -14.9062    26.0076    10.4803 H            1 TOP1160   0.0000
@<TRIPOS>BOND
     1    1    2      ar
     2    1    8      ar
     3    2    3      ar
     4    3    4       1
     5    3    5      ar
     6    5    6      ar
     7    6    7       1
     8    6    8      ar
     9    8    9       1
    10    9   10       1
    11   10   11      ar
    12   10   21      ar
    13   11   12      ar
    14   12   13       1
    15   12   15      ar
    16   13   14       1
    17   15   16       1
    18   15   18      ar
    19   16   17       1
    20   18   19       1
    21   18   21      ar
    22   19   20       1
    23    1   22       1
    24    4   23       1
    25    4   24       1
    26    7   25       1
    27    7   26       1
    28    9   27       1
    29    9   28       1
    30   11   29       1
    31   14   30       1
    32   14   31       1
    33   14   32       1
    34   17   33       1
    35   17   34       1
    36   17   35       1
    37   20   36       1
    38   20   37       1
    39   20   38       1
    40   21   39       1
    41    2   40       1
@<TRIPOS>SUBSTRUCTURE
     1 TOP1160     1 GROUP             4 E     TOP     0 **** TOP E1160
