@<TRIPOS>MOLECULE
4z61_ILE_THR_GLN_TYS_TYS_2_ligand
  101   102     4     0     0
SMALL
NO_CHARGES


@<TRIPOS>ATOM
     1 N         -113.5630    28.2480    31.7150 N.4          1 TYS28    1.0000
     2 CA        -113.5360    26.8730    32.0940 C.3          1 TYS28    0.0000
     3 CB        -114.9490    26.4060    32.4730 C.3          1 TYS28    0.0000
     4 CG        -115.9740    26.4150    31.3850 C.ar         1 TYS28    0.0000
     5 CD1       -116.0780    25.3740    30.5280 C.ar         1 TYS28    0.0000
     6 CD2       -116.8170    27.4460    31.2260 C.ar         1 TYS28    0.0000
     7 CE1       -116.9440    25.3730    29.5720 C.ar         1 TYS28    0.0000
     8 CE2       -117.7100    27.4420    30.2790 C.ar         1 TYS28    0.0000
     9 CZ        -117.7860    26.3920    29.4500 C.ar         1 TYS28    0.0000
    10 OH        -118.6630    26.2740    28.4250 O.3          1 TYS28    0.0000
    11 S         -120.0320    27.0110    28.4080 S.o2         1 TYS28    0.0000
    12 O1        -119.7990    28.4110    28.1280 O.co2        1 TYS28    0.0000
    13 O2        -120.7800    26.4060    27.3120 O.co2        1 TYS28    0.0000
    14 O3        -120.8780    26.9140    29.5740 O.co2        1 TYS28   -1.0000
    15 C         -112.9160    26.0250    31.0430 C.2          1 TYS28    0.0000
    16 O         -112.8700    26.3950    29.9300 O.2          1 TYS28    0.0000
    17 H1        -113.4117    28.8192    32.5218 H            1 TYS28    0.0000
    18 H2        -112.8432    28.4228    31.0432 H            1 TYS28    0.0000
    19 HA        -112.9666    26.7992    32.9127 H            1 TYS28    0.0000
    20 HB1       -115.2789    27.0022    33.2049 H            1 TYS28    0.0000
    21 HB2       -114.8770    25.4686    32.8136 H            1 TYS28    0.0000
    22 HD1       -115.4701    24.5876    30.6379 H            1 TYS28    0.0000
    23 HD2       -116.7586    28.2297    31.8444 H            1 TYS28    0.0000
    24 HE1       -116.9808    24.6097    28.9270 H            1 TYS28    0.0000
    25 HE2       -118.3340    28.2159    30.1711 H            1 TYS28    0.0000
    26 N         -112.7360    22.4620    28.8590 N.am         1 TYS28    0.0000
    27 CA        -113.5000    21.3790    28.2790 C.3          1 TYS28    0.0000
    28 CB        -114.7300    21.9400    27.6420 C.3          1 TYS28    0.0000
    29 CG        -114.4870    22.8270    26.4780 C.ar         1 TYS28    0.0000
    30 CD1       -114.4110    22.3180    25.2250 C.ar         1 TYS28    0.0000
    31 CD2       -114.3680    24.1690    26.6290 C.ar         1 TYS28    0.0000
    32 CE1       -114.2010    23.0610    24.2220 C.ar         1 TYS28    0.0000
    33 CE2       -114.1750    24.9240    25.6110 C.ar         1 TYS28    0.0000
    34 CZ        -114.1190    24.3710    24.3930 C.ar         1 TYS28    0.0000
    35 OH        -113.8590    25.1640    23.3380 O.3          1 TYS28    0.0000
    36 S         -114.9420    25.7520    22.4370 S.o2         1 TYS28    0.0000
    37 O1        -115.0450    27.1710    22.5130 O.co2        1 TYS28    0.0000
    38 O2        -114.6580    25.4500    21.0840 O.co2        1 TYS28    0.0000
    39 O3        -116.2470    25.3060    22.6840 O.co2        1 TYS28   -1.0000
    40 C         -112.6830    20.6080    27.2450 C.2          1 TYS28    0.0000
    41 O         -111.6290    21.0070    26.8890 O.2          1 TYS28    0.0000
    42 H21       -113.7726    20.7507    29.0077 H            1 TYS28    0.0000
    43 H22       -115.2251    22.4655    28.3339 H            1 TYS28    0.0000
    44 H23       -115.2967    21.1751    27.3357 H            1 TYS28    0.0000
    45 H24       -114.5233    21.3336    25.0894 H            1 TYS28    0.0000
    46 H25       -114.4313    24.5731    27.5415 H            1 TYS28    0.0000
    47 H26       -114.0982    22.6627    23.3105 H            1 TYS28    0.0000
    48 H27       -114.0678    25.9117    25.7250 H            1 TYS28    0.0000
    49 H28       -112.1636    22.9925    28.2338 H            1 TYS28    0.0000
    50 N         -112.4250    24.8670    31.4230 N.am         2 ILE29    0.0000
    51 CA        -111.8230    23.9480    30.4940 C.3          2 ILE29    0.0000
    52 C         -112.7170    22.8230    30.1340 C.2          2 ILE29    0.0000
    53 O         -113.3130    22.2930    30.9760 O.2          2 ILE29    0.0000
    54 CB        -110.6120    23.2640    31.0580 C.3          2 ILE29    0.0000
    55 CG1       -109.5070    24.2360    31.3230 C.3          2 ILE29    0.0000
    56 CG2       -110.1550    22.2800    30.1150 C.3          2 ILE29    0.0000
    57 CD1       -108.6000    23.7550    32.3520 C.3          2 ILE29    0.0000
    58 H10       -111.5649    24.4417    29.6635 H            2 ILE29    0.0000
    59 HB        -110.8606    22.8087    31.9129 H            2 ILE29    0.0000
    60 HG11      -109.9040    25.1039    31.6215 H            2 ILE29    0.0000
    61 HG12      -108.9915    24.3783    30.4780 H            2 ILE29    0.0000
    62 HG21      -109.3474    21.8175    30.4809 H            2 ILE29    0.0000
    63 HG22      -110.8795    21.6095    29.9554 H            2 ILE29    0.0000
    64 HG23      -109.9201    22.7285    29.2527 H            2 ILE29    0.0000
    65 HD11      -107.8770    24.4296    32.5009 H            2 ILE29    0.0000
    66 HD12      -109.1058    23.6150    33.2032 H            2 ILE29    0.0000
    67 HD13      -108.1933    22.8895    32.0598 H            2 ILE29    0.0000
    68 H20       -112.4713    24.6161    32.3899 H            2 ILE29    0.0000
    69 N         -113.1420    19.4580    26.8020 N.am         3 THR31    0.0000
    70 CA        -112.5080    18.7530    25.7030 C.3          3 THR31    0.0000
    71 C         -113.5420    18.4920    24.6340 C.2          3 THR31    0.0000
    72 O         -114.6670    18.6060    24.9120 O.2          3 THR31    0.0000
    73 CB        -111.7900    17.5310    26.1280 C.3          3 THR31    0.0000
    74 OG1       -112.6340    16.4450    25.9880 O.3          3 THR31    0.0000
    75 CG2       -111.4690    17.6120    27.4680 C.3          3 THR31    0.0000
    76 H29       -111.8281    19.3719    25.3097 H            3 THR31    0.0000
    77 H30       -110.9640    17.4034    25.5789 H            3 THR31    0.0000
    78 HG1       -112.2306    15.7894    25.3497 H            3 THR31    0.0000
    79 H32       -110.9845    16.7824    27.7454 H            3 THR31    0.0000
    80 H33       -110.8833    18.4076    27.6230 H            3 THR31    0.0000
    81 H34       -112.3066    17.7047    28.0064 H            3 THR31    0.0000
    82 H35       -113.9502    19.0582    27.2343 H            3 THR31    0.0000
    83 N         -113.1780    18.2070    23.3990 N.am         4 GLN32    0.0000
    84 CA        -114.1640    18.0410    22.3440 C.3          4 GLN32    0.0000
    85 C         -113.6090    17.1390    21.2670 C.2          4 GLN32    0.0000
    86 O         -114.1520    17.0560    20.1710 O.co2        4 GLN32    0.0000
    87 CB        -114.4800    19.3890    21.7310 C.3          4 GLN32    0.0000
    88 CG        -113.2720    20.0570    21.1640 C.3          4 GLN32    0.0000
    89 CD        -113.6010    21.3630    20.5150 C.2          4 GLN32    0.0000
    90 OE1       -114.7170    21.5640    20.0400 O.2          4 GLN32    0.0000
    91 NE2       -112.6290    22.2720    20.4830 N.am         4 GLN32    0.0000
    92 OXT       -112.5840    16.4910    21.4530 O.co2        4 GLN32   -1.0000
    93 H36       -112.2068    18.1033    23.1846 H            4 GLN32    0.0000
    94 H37       -114.9979    17.6395    22.7227 H            4 GLN32    0.0000
    95 H38       -114.8705    19.9789    22.4377 H            4 GLN32    0.0000
    96 H39       -115.1482    19.2593    20.9984 H            4 GLN32    0.0000
    97 H40       -112.8605    19.4529    20.4816 H            4 GLN32    0.0000
    98 HG2       -112.6178    20.2202    21.9025 H            4 GLN32    0.0000
    99 HE21      -112.7922    23.1639    20.0613 H            4 GLN32    0.0000
   100 HE22      -111.7356    22.0629    20.8807 H            4 GLN32    0.0000
   101 H44       -114.4530    28.4659    31.3144 H            4 GLN32    0.0000
@<TRIPOS>BOND
     1    1    2       1
     2    2    3       1
     3    2   15       1
     4    3    4       1
     5    4    5      ar
     6    4    6      ar
     7    5    7      ar
     8    6    8      ar
     9    7    9      ar
    10    8    9      ar
    11    9   10       1
    12   10   11       1
    13   11   12      ar
    14   11   13      ar
    15   11   14      ar
    16   15   16       2
    17    1   17       1
    18    1   18       1
    19    2   19       1
    20    3   20       1
    21    3   21       1
    22    5   22       1
    23    6   23       1
    24    7   24       1
    25    8   25       1
    26    1  101       1
    27   57   67       1
    28   15   50      am
    29   50   51       1
    30   51   54       1
    31   51   52       1
    32   54   56       1
    33   54   55       1
    34   55   57       1
    35   52   53       2
    36   57   66       1
    37   57   65       1
    38   51   58       1
    39   75   81       1
    40   54   59       1
    41   55   60       1
    42   55   61       1
    43   56   62       1
    44   56   63       1
    45   56   64       1
    46   50   68       1
    47   52   26      am
    48   26   27       1
    49   27   28       1
    50   27   40       1
    51   28   29       1
    52   29   30      ar
    53   29   31      ar
    54   30   32      ar
    55   31   33      ar
    56   32   34      ar
    57   33   34      ar
    58   34   35       1
    59   35   36       1
    60   36   37      ar
    61   36   38      ar
    62   36   39      ar
    63   40   41       2
    64   91   99       1
    65   33   48       1
    66   27   42       1
    67   28   43       1
    68   28   44       1
    69   30   45       1
    70   31   46       1
    71   32   47       1
    72   26   49       1
    73   40   69      am
    74   69   70       1
    75   70   73       1
    76   70   71       1
    77   73   75       1
    78   73   74       1
    79   71   72       2
    80   75   80       1
    81   75   79       1
    82   70   76       1
    83   71   83      am
    84   73   77       1
    85   74   78       1
    86   69   82       1
    87   83   84       1
    88   84   87       1
    89   84   85       1
    90   87   88       1
    91   88   89       1
    92   89   90       2
    93   89   91      am
    94   85   86      ar
    95   85   92      ar
    96   91  100       1
    97   83   93       1
    98   84   94       1
    99   87   95       1
   100   87   96       1
   101   88   97       1
   102   88   98       1
@<TRIPOS>SUBSTRUCTURE
     1 TYS28       1 GROUP             4 Q     TYS     0 **** TYS Q  28
     2 ILE29      50 RESIDUE           4 Q     ILE     0 **** ILE Q  29
     3 THR31      69 RESIDUE           4 Q     THR     0 **** THR Q  31
     4 GLN32      83 RESIDUE           4 Q     GLN     0 **** GLN Q  32
