@<TRIPOS>MOLECULE
5cfn_2BA_2_ligand
   68    74     1     0     0
SMALL
NO_CHARGES


@<TRIPOS>ATOM
     1 P          -23.5090   -39.6180    -0.0740 P.3          1 2BA402   0.0000
     2 O1P        -24.4850   -40.2460     0.8780 O.3          1 2BA402   0.0000
     3 O2P        -22.7810   -38.6270     0.7520 O.2          1 2BA402   0.0000
     4 O5'        -24.2140   -38.7290    -1.2500 O.3          1 2BA402   0.0000
     5 C5'        -25.0950   -39.3970    -2.1860 C.3          1 2BA402   0.0000
     6 C4'        -25.3390   -38.5010    -3.3370 C.3          1 2BA402   0.0000
     7 O4'        -25.5640   -36.9330    -2.8360 O.3          1 2BA402   0.0000
     8 C3'        -24.2680   -38.4430    -4.1210 C.3          1 2BA402   0.0000
     9 O3'        -24.1980   -39.5890    -5.0340 O.3          1 2BA402   0.0000
    10 C2'        -24.5090   -37.1400    -4.8950 C.3          1 2BA402   0.0000
    11 O2'        -25.3910   -37.3310    -5.8670 O.3          1 2BA402   0.0000
    12 C1'        -25.1060   -36.1650    -3.7730 C.3          1 2BA402   0.0000
    13 N9         -24.0610   -35.3490    -3.2850 N.pl3        1 2BA402   0.0000
    14 C8         -23.0650   -35.7540    -2.5040 C.2          1 2BA402   0.0000
    15 N7         -22.2490   -34.7230    -2.2380 N.2          1 2BA402   0.0000
    16 C5         -22.7320   -33.6140    -2.8700 C.ar         1 2BA402   0.0000
    17 C6         -22.3100   -32.2530    -2.9600 C.ar         1 2BA402   0.0000
    18 N6         -21.1610   -31.8060    -2.3080 N.pl3        1 2BA402   0.0000
    19 N1         -23.0710   -31.4090    -3.7070 N.ar         1 2BA402   0.0000
    20 C2         -24.1630   -31.8070    -4.3330 C.ar         1 2BA402   0.0000
    21 N3         -24.5830   -33.0730    -4.2700 N.ar         1 2BA402   0.0000
    22 C4         -23.8940   -34.0130    -3.5450 C.ar         1 2BA402   0.0000
    23 P1         -22.7360   -39.9750    -5.6520 P.3          1 2BA402   0.0000
    24 O1P1       -22.7750   -41.0320    -6.6730 O.3          1 2BA402   0.0000
    25 O2P1       -22.2750   -38.6980    -6.4170 O.2          1 2BA402   0.0000
    26 O5'1       -21.6420   -40.1960    -4.5750 O.3          1 2BA402   0.0000
    27 C5'1       -21.7290   -41.3830    -3.7360 C.3          1 2BA402   0.0000
    28 C4'1       -20.7530   -41.2200    -2.5910 C.3          1 2BA402   0.0000
    29 O4'1       -19.6340   -40.7640    -3.0310 O.3          1 2BA402   0.0000
    30 C3'1       -21.2890   -40.0880    -1.5330 C.3          1 2BA402   0.0000
    31 O3'1       -22.3680   -40.6330    -0.6110 O.3          1 2BA402   0.0000
    32 C2'1       -20.2740   -39.7750    -0.8890 C.3          1 2BA402   0.0000
    33 O2'1       -20.0580   -40.7610     0.2460 O.3          1 2BA402   0.0000
    34 C1'1       -19.1010   -39.8770    -1.9300 C.3          1 2BA402   0.0000
    35 N91        -18.7840   -38.6840    -2.3800 N.pl3        1 2BA402   0.0000
    36 C81        -19.4730   -37.9200    -3.2600 C.2          1 2BA402   0.0000
    37 N71        -18.8680   -36.7330    -3.5030 N.2          1 2BA402   0.0000
    38 C51        -17.7380   -36.7630    -2.7280 C.ar         1 2BA402   0.0000
    39 C61        -16.7330   -35.8030    -2.5790 C.ar         1 2BA402   0.0000
    40 N61        -16.7510   -34.5780    -3.2650 N.pl3        1 2BA402   0.0000
    41 N11        -15.7420   -36.1460    -1.7290 N.ar         1 2BA402   0.0000
    42 C21        -15.7350   -37.3200    -1.0830 C.ar         1 2BA402   0.0000
    43 N31        -16.6740   -38.2430    -1.2030 N.ar         1 2BA402   0.0000
    44 C41        -17.6800   -37.9380    -2.0450 C.ar         1 2BA402   0.0000
    45 H1P        -23.9866   -40.6780     1.6296 H            1 2BA402   0.0000
    46 H5'1       -25.9626   -39.6103    -1.7368 H            1 2BA402   0.0000
    47 H5'2       -24.6675   -40.2432    -2.5040 H            1 2BA402   0.0000
    48 H4'        -26.1327   -38.8151    -3.8580 H            1 2BA402   0.0000
    49 H3'        -23.4339   -38.3779    -3.5732 H            1 2BA402   0.0000
    50 H2'        -23.6506   -36.7790    -5.2596 H            1 2BA402   0.0000
    51 H7         -25.3298   -38.2748    -6.1919 H            1 2BA402   0.0000
    52 H1'        -25.8399   -35.6024    -4.1536 H            1 2BA402   0.0000
    53 H9         -22.9423   -36.6869    -2.1655 H            1 2BA402   0.0000
    54 H10        -20.8833   -30.8484    -2.3843 H            1 2BA402   0.0000
    55 H11        -20.6148   -32.4431    -1.7642 H            1 2BA402   0.0000
    56 H12        -24.6882   -31.1446    -4.8672 H            1 2BA402   0.0000
    57 H13        -23.3483   -40.7363    -7.4371 H            1 2BA402   0.0000
    58 H14        -21.4923   -42.1943    -4.2706 H            1 2BA402   0.0000
    59 H15        -22.6581   -41.4785    -3.3788 H            1 2BA402   0.0000
    60 H16        -20.6138   -42.0938    -2.1251 H            1 2BA402   0.0000
    61 H17        -21.6356   -39.2930    -2.0308 H            1 2BA402   0.0000
    62 H18        -20.3531   -38.8426    -0.5364 H            1 2BA402   0.0000
    63 H19        -19.0800   -40.8361     0.4407 H            1 2BA402   0.0000
    64 H20        -18.3033   -40.3040    -1.5042 H            1 2BA402   0.0000
    65 H21        -20.3339   -38.2012    -3.6839 H            1 2BA402   0.0000
    66 H22        -16.0117   -33.9183    -3.1298 H            1 2BA402   0.0000
    67 H23        -17.5031   -34.3652    -3.8888 H            1 2BA402   0.0000
    68 H24        -14.9687   -37.5106    -0.4694 H            1 2BA402   0.0000
@<TRIPOS>BOND
     1    1    2       1
     2    1    3       2
     3    1    4       1
     4    1   31       1
     5    4    5       1
     6    5    6       1
     7    6    7       1
     8    6    8       1
     9    7   12       1
    10    8    9       1
    11    8   10       1
    12    9   23       1
    13   10   11       1
    14   10   12       1
    15   12   13       1
    16   13   14       1
    17   13   22       1
    18   14   15       2
    19   15   16       1
    20   16   17      ar
    21   16   22      ar
    22   17   18       1
    23   17   19      ar
    24   19   20      ar
    25   20   21      ar
    26   21   22      ar
    27   23   24       1
    28   23   25       2
    29   23   26       1
    30   26   27       1
    31   27   28       1
    32   28   29       1
    33   28   30       1
    34   29   34       1
    35   30   31       1
    36   30   32       1
    37   32   33       1
    38   32   34       1
    39   34   35       1
    40   35   36       1
    41   35   44       1
    42   36   37       2
    43   37   38       1
    44   38   39      ar
    45   38   44      ar
    46   39   40       1
    47   39   41      ar
    48   41   42      ar
    49   42   43      ar
    50   43   44      ar
    51    2   45       1
    52    5   46       1
    53    5   47       1
    54    6   48       1
    55    8   49       1
    56   10   50       1
    57   11   51       1
    58   12   52       1
    59   14   53       1
    60   18   54       1
    61   18   55       1
    62   20   56       1
    63   24   57       1
    64   27   58       1
    65   27   59       1
    66   28   60       1
    67   30   61       1
    68   32   62       1
    69   33   63       1
    70   34   64       1
    71   36   65       1
    72   40   66       1
    73   40   67       1
    74   42   68       1
@<TRIPOS>SUBSTRUCTURE
     1 2BA402      1 GROUP             4 A     2BA     0 **** 2BA A 402
