@<TRIPOS>MOLECULE
5ief_NBV_1_ligand
   37    37     1     0     0
SMALL
NO_CHARGES


@<TRIPOS>ATOM
     1 O9         108.4040   529.4160    72.0730 O.3          1 NBV1005   0.0000
     2 C12        107.6270   529.4880    70.9000 C.3          1 NBV1005   0.0000
     3 C11        107.7910   530.8200    70.1870 C.3          1 NBV1005   0.0000
     4 C10        109.1590   530.8740    69.5060 C.3          1 NBV1005   0.0000
     5 O1         109.1870   529.9340    68.4420 O.3          1 NBV1005   0.0000
     6 C9         109.4410   532.2520    68.9350 C.3          1 NBV1005   0.0000
     7 O8         110.7200   532.2710    68.3120 O.3          1 NBV1005   0.0000
     8 C8         109.3730   533.2820    70.0490 C.3          1 NBV1005   0.0000
     9 O7         109.7220   534.5780    69.5520 O.3          1 NBV1005   0.0000
    10 N1         107.4880   531.9560    71.0950 N.4          1 NBV1005   1.0000
    11 C7         107.9880   533.2810    70.6820 C.3          1 NBV1005   0.0000
    12 C13        106.0350   532.0540    71.3340 C.3          1 NBV1005   0.0000
    13 C14        105.5650   531.7410    72.7390 C.3          1 NBV1005   0.0000
    14 C15        104.0640   531.4650    72.8220 C.3          1 NBV1005   0.0000
    15 C16        103.2350   532.5510    72.1410 C.3          1 NBV1005   0.0000
    16 H1         109.0494   528.6557    71.9992 H            1 NBV1005   0.0000
    17 H2         106.6643   529.3686    71.1430 H            1 NBV1005   0.0000
    18 H3         107.9081   528.7543    70.2814 H            1 NBV1005   0.0000
    19 H4         107.1059   530.8429    69.4589 H            1 NBV1005   0.0000
    20 H5         109.8683   530.6408    70.1712 H            1 NBV1005   0.0000
    21 H6         109.5142   529.0531    68.7840 H            1 NBV1005   0.0000
    22 H7         108.7442   532.4681    68.2510 H            1 NBV1005   0.0000
    23 H8         110.7154   532.9318    67.5615 H            1 NBV1005   0.0000
    24 H9         110.0378   533.0272    70.7513 H            1 NBV1005   0.0000
    25 H10        109.0848   534.8397    68.8271 H            1 NBV1005   0.0000
    26 H11        107.3441   533.6617    70.0183 H            1 NBV1005   0.0000
    27 H12        108.0174   533.8669    71.4918 H            1 NBV1005   0.0000
    28 H13        105.5799   531.4174    70.7113 H            1 NBV1005   0.0000
    29 H14        105.7531   532.9891    71.1194 H            1 NBV1005   0.0000
    30 H15        105.7780   532.5213    73.3270 H            1 NBV1005   0.0000
    31 H16        106.0556   530.9333    73.0661 H            1 NBV1005   0.0000
    32 H17        103.7993   531.4152    73.7850 H            1 NBV1005   0.0000
    33 H18        103.8733   530.5894    72.3781 H            1 NBV1005   0.0000
    34 H19        102.2635   532.3280    72.2208 H            1 NBV1005   0.0000
    35 H20        103.4122   533.4311    72.5815 H            1 NBV1005   0.0000
    36 H21        103.4863   532.6054    71.1746 H            1 NBV1005   0.0000
    37 H22        107.9138   531.7461    71.9751 H            1 NBV1005   0.0000
@<TRIPOS>BOND
     1    1    2       1
     2    2    3       1
     3    3    4       1
     4    3   10       1
     5    4    5       1
     6    4    6       1
     7    6    7       1
     8    6    8       1
     9    8    9       1
    10    8   11       1
    11   10   11       1
    12   10   12       1
    13   12   13       1
    14   13   14       1
    15   14   15       1
    16    1   16       1
    17    2   17       1
    18    2   18       1
    19    3   19       1
    20    4   20       1
    21    5   21       1
    22    6   22       1
    23    7   23       1
    24    8   24       1
    25    9   25       1
    26   11   26       1
    27   11   27       1
    28   12   28       1
    29   12   29       1
    30   13   30       1
    31   13   31       1
    32   14   32       1
    33   14   33       1
    34   15   34       1
    35   15   35       1
    36   15   36       1
    37   10   37       1
@<TRIPOS>SUBSTRUCTURE
     1 NBV1005     1 GROUP             4 A     NBV     0 **** NBV A1005
