@<TRIPOS>MOLECULE
4gfv_PRO_GLU_LEU_THR_PTR_2_ligand
   89    90     5     0     0
SMALL
NO_CHARGES


@<TRIPOS>ATOM
     1 N           42.9120   -30.7560     1.2780 N.4          1 PRO1194   1.0000
     2 CA          41.9510   -30.9730     2.3630 C.3          1 PRO1194   0.0000
     3 C           40.5830   -30.4170     2.0000 C.2          1 PRO1194   0.0000
     4 O           40.4640   -29.4040     1.3000 O.2          1 PRO1194   0.0000
     5 CB          42.5440   -30.1580     3.5230 C.3          1 PRO1194   0.0000
     6 CG          43.1930   -28.9910     2.8370 C.3          1 PRO1194   0.0000
     7 CD          43.7360   -29.5530     1.5110 C.3          1 PRO1194   0.0000
     8 H1          43.5128   -31.5528     1.2130 H            1 PRO1194   0.0000
     9 HA          41.8919   -31.9426     2.6002 H            1 PRO1194   0.0000
    10 HB1         41.8260   -29.8511     4.1477 H            1 PRO1194   0.0000
    11 HB2         43.2187   -30.6954     4.0289 H            1 PRO1194   0.0000
    12 HG1         42.5230   -28.2692     2.6637 H            1 PRO1194   0.0000
    13 HG2         43.9386   -28.6267     3.3949 H            1 PRO1194   0.0000
    14 HD1         43.6202   -28.8922     0.7694 H            1 PRO1194   0.0000
    15 HD2         44.7030   -29.7937     1.5949 H            1 PRO1194   0.0000
    16 N           39.5520   -31.0950     2.4750 N.am         2 GLU1195   0.0000
    17 CA          38.2050   -30.5830     2.3540 C.3          2 GLU1195   0.0000
    18 C           37.7650   -30.0910     3.7280 C.2          2 GLU1195   0.0000
    19 O           38.2250   -30.6030     4.7410 O.2          2 GLU1195   0.0000
    20 CB          37.2780   -31.6760     1.8570 C.3          2 GLU1195   0.0000
    21 CG          37.5780   -32.1650     0.4430 C.3          2 GLU1195   0.0000
    22 CD          36.7550   -33.4050     0.0910 C.2          2 GLU1195   0.0000
    23 OE1         36.9350   -34.4570     0.7620 O.co2        2 GLU1195   0.0000
    24 OE2         35.9040   -33.3130    -0.8290 O.co2        2 GLU1195  -1.0000
    25 H9          39.7060   -31.9749     2.9246 H            2 GLU1195   0.0000
    26 H10         38.1958   -29.8195     1.7083 H            2 GLU1195   0.0000
    27 H11         36.3423   -31.3236     1.8738 H            2 GLU1195   0.0000
    28 H12         37.3519   -32.4553     2.4793 H            2 GLU1195   0.0000
    29 H13         38.5499   -32.3908     0.3769 H            2 GLU1195   0.0000
    30 H14         37.3603   -31.4358    -0.2058 H            2 GLU1195   0.0000
    31 N           36.8980   -29.0800     3.7460 N.am         3 PTR1196   0.0000
    32 CA          36.4490   -28.4720     4.9770 C.3          3 PTR1196   0.0000
    33 C           35.1810   -29.1930     5.4470 C.2          3 PTR1196   0.0000
    34 O           34.8850   -29.2500     6.6440 O.2          3 PTR1196   0.0000
    35 CB          36.2420   -26.9750     4.7170 C.3          3 PTR1196   0.0000
    36 CG          35.8600   -26.1300     5.9370 C.ar         3 PTR1196   0.0000
    37 CD1         36.8170   -25.7000     6.8640 C.ar         3 PTR1196   0.0000
    38 CD2         34.5390   -25.7500     6.1490 C.ar         3 PTR1196   0.0000
    39 CE1         36.4620   -24.9190     7.9690 C.ar         3 PTR1196   0.0000
    40 CE2         34.1860   -24.9650     7.2300 C.ar         3 PTR1196   0.0000
    41 CZ          35.1440   -24.5500     8.1440 C.ar         3 PTR1196   0.0000
    42 OH          34.7780   -23.8710     9.0960 O.3          3 PTR1196   0.0000
    43 P           34.8540   -22.2480     9.1700 P.3          3 PTR1196   0.0000
    44 O1P         36.2820   -21.8920     9.2290 O.co2        3 PTR1196   0.0000
    45 O2P         34.1710   -21.5580     7.9870 O.co2        3 PTR1196  -1.0000
    46 O3P         34.2120   -21.8080    10.4690 O.co2        3 PTR1196  -1.0000
    47 H15         37.1603   -28.5840     5.6709 H            3 PTR1196   0.0000
    48 H16         35.5138   -26.8798     4.0383 H            3 PTR1196   0.0000
    49 H17         37.0945   -26.6079     4.3449 H            3 PTR1196   0.0000
    50 H18         37.7747   -25.9566     6.7335 H            3 PTR1196   0.0000
    51 H19         33.8325   -26.0501     5.5081 H            3 PTR1196   0.0000
    52 HE1         37.1578   -24.6305     8.6267 H            3 PTR1196   0.0000
    53 HE2         33.2317   -24.6936     7.3547 H            3 PTR1196   0.0000
    54 H22         36.5460   -28.7300     2.8779 H            3 PTR1196   0.0000
    55 N           34.4360   -29.7630     4.5010 N.am         4 LEU1197   0.0000
    56 CA          33.1990   -30.4650     4.8400 C.3          4 LEU1197   0.0000
    57 C           33.3530   -31.9760     4.6380 C.2          4 LEU1197   0.0000
    58 O           33.7380   -32.4180     3.5610 O.2          4 LEU1197   0.0000
    59 CB          32.0340   -29.9380     3.9950 C.3          4 LEU1197   0.0000
    60 CG          31.6330   -28.4550     3.9420 C.3          4 LEU1197   0.0000
    61 CD1         32.7070   -27.5360     4.3980 C.3          4 LEU1197   0.0000
    62 CD2         31.2290   -28.0910     2.5450 C.3          4 LEU1197   0.0000
    63 H23         32.9929   -30.2945     5.8036 H            4 LEU1197   0.0000
    64 H24         31.2224   -30.4304     4.3096 H            4 LEU1197   0.0000
    65 H25         32.2385   -30.2006     3.0520 H            4 LEU1197   0.0000
    66 HG          30.8404   -28.3262     4.5380 H            4 LEU1197   0.0000
    67 HD11        32.3844   -26.5913     4.3394 H            4 LEU1197   0.0000
    68 HD12        32.9473   -27.7481     5.3453 H            4 LEU1197   0.0000
    69 HD13        33.5124   -27.6499     3.8163 H            4 LEU1197   0.0000
    70 HD21        30.9688   -27.1259     2.5140 H            4 LEU1197   0.0000
    71 HD22        31.9967   -28.2494     1.9240 H            4 LEU1197   0.0000
    72 HD23        30.4520   -28.6549     2.2651 H            4 LEU1197   0.0000
    73 H33         34.7269   -29.7100     3.5457 H            4 LEU1197   0.0000
    74 N           33.0490   -32.7600     5.6670 N.am         5 THR1198   0.0000
    75 CA          33.0720   -34.2230     5.5820 C.3          5 THR1198   0.0000
    76 C           32.6910   -34.8030     6.9340 C.2          5 THR1198   0.0000
    77 O           33.4350   -34.6520     7.9070 O.2          5 THR1198   0.0000
    78 CB          34.4650   -34.7860     5.2100 C.3          5 THR1198   0.0000
    79 OG1         35.4860   -33.9870     5.8170 O.3          5 THR1198   0.0000
    80 CG2         34.6750   -34.8280     3.6850 C.3          5 THR1198   0.0000
    81 H34         32.7940   -32.3342     6.5352 H            5 THR1198   0.0000
    82 H35         32.4056   -34.5213     4.8987 H            5 THR1198   0.0000
    83 H36         31.8344   -35.3088     7.0356 H            5 THR1198   0.0000
    84 HB          34.5367   -35.7176     5.5664 H            5 THR1198   0.0000
    85 H38         35.3760   -34.0043     6.8108 H            5 THR1198   0.0000
    86 HG21        35.5827   -35.1961     3.4835 H            5 THR1198   0.0000
    87 HG22        33.9784   -35.4123     3.2686 H            5 THR1198   0.0000
    88 HG23        34.6002   -33.9029     3.3126 H            5 THR1198   0.0000
    89 H42         42.4117   -30.6448     0.4193 H            5 THR1198   0.0000
@<TRIPOS>BOND
     1    1    7       1
     2    1    2       1
     3    7    6       1
     4    6    5       1
     5    5    2       1
     6    2    3       1
     7    3    4       2
     8    1    8       1
     9    2    9       1
    10    3   16      am
    11    5   10       1
    12    5   11       1
    13    6   12       1
    14    6   13       1
    15    7   14       1
    16    7   15       1
    17   16   17       1
    18   17   20       1
    19   17   18       1
    20   20   21       1
    21   21   22       1
    22   22   23      ar
    23   22   24      ar
    24   18   19       2
    25   21   30       1
    26   16   25       1
    27   17   26       1
    28   80   87       1
    29   20   27       1
    30   20   28       1
    31   21   29       1
    32   18   31      am
    33   31   32       1
    34   32   33       1
    35   32   35       1
    36   33   34       2
    37   35   36       1
    38   36   37      ar
    39   36   38      ar
    40   37   39      ar
    41   38   40      ar
    42   39   41      ar
    43   40   41      ar
    44   41   42       1
    45   42   43       1
    46   43   44      ar
    47   43   45      ar
    48   43   46      ar
    49    1   89       1
    50   40   53       1
    51   32   47       1
    52   62   72       1
    53   35   48       1
    54   35   49       1
    55   37   50       1
    56   38   51       1
    57   39   52       1
    58   31   54       1
    59   33   55      am
    60   55   56       1
    61   56   59       1
    62   56   57       1
    63   59   60       1
    64   60   61       1
    65   60   62       1
    66   57   58       2
    67   62   71       1
    68   62   70       1
    69   56   63       1
    70   57   74      am
    71   59   64       1
    72   59   65       1
    73   60   66       1
    74   61   67       1
    75   61   68       1
    76   61   69       1
    77   55   73       1
    78   74   75       1
    79   75   78       1
    80   75   76       1
    81   78   80       1
    82   78   79       1
    83   76   77       2
    84   80   88       1
    85   74   81       1
    86   75   82       1
    87   76   83       1
    88   78   84       1
    89   79   85       1
    90   80   86       1
@<TRIPOS>SUBSTRUCTURE
     1 PRO1194     1 RESIDUE           4 F     PRO     0 **** PRO F1194
     2 GLU1195    16 RESIDUE           4 F     GLU     0 **** GLU F1195
     3 PTR1196    31 GROUP             4 F     PTR     0 **** PTR F1196
     4 LEU1197    55 RESIDUE           4 F     LEU     0 **** LEU F1197
     5 THR1198    74 RESIDUE           4 F     THR     0 **** THR F1198
