@<TRIPOS>MOLECULE
2xzg_VH1_1_ligand
   40    43     1     0     0
SMALL
NO_CHARGES


@<TRIPOS>ATOM
     1 CAJ         46.0830    -7.5620    26.2510 C.ar         1 VH11362   0.0000
     2 CAH         46.1750    -6.2670    26.7830 C.ar         1 VH11362   0.0000
     3 CAQ         46.5190    -5.1940    25.9590 C.ar         1 VH11362   0.0000
     4 NAA         46.5910    -3.9400    26.4740 N.pl3        1 VH11362   0.0000
     5 CAI         46.7920    -5.4120    24.6050 C.ar         1 VH11362   0.0000
     6 CAK         46.7260    -6.7070    24.0820 C.ar         1 VH11362   0.0000
     7 CAR         46.3680    -7.7760    24.9120 C.ar         1 VH11362   0.0000
     8 CAP         46.2630    -9.1560    24.2810 C.3          1 VH11362   0.0000
     9 NAZ         47.4900    -9.9620    24.3130 N.am         1 VH11362   0.0000
    10 CAU         48.4100    -9.8270    23.2980 C.2          1 VH11362   0.0000
    11 OAC         48.1570    -9.0130    22.4290 O.2          1 VH11362   0.0000
    12 CAX         49.5740   -10.5970    23.2920 C.ar         1 VH11362   0.0000
    13 CAY         49.7590   -11.5290    24.3490 C.ar         1 VH11362   0.0000
    14 CAO         50.5050   -10.4670    22.2750 C.ar         1 VH11362   0.0000
    15 CAS         51.6400   -11.2560    22.3080 C.ar         1 VH11362   0.0000
    16 SBA         52.8450   -11.1720    21.0200 S.o2         1 VH11362   0.0000
    17 OAF         52.6130   -12.2710    20.1830 O.co2        1 VH11362   0.0000
    18 OAE         54.1560   -11.4150    21.6630 O.co2        1 VH11362   0.0000
    19 OAD         52.8090    -9.8950    20.2520 O.co2        1 VH11362  -1.0000
    20 CAN         51.8430   -12.1770    23.3420 C.ar         1 VH11362   0.0000
    21 CAV         50.9090   -12.3400    24.3740 C.ar         1 VH11362   0.0000
    22 CAL         51.1200   -13.2500    25.4260 C.ar         1 VH11362   0.0000
    23 CAG         50.1860   -13.3960    26.4600 C.ar         1 VH11362   0.0000
    24 CAM         49.0230   -12.5950    26.4200 C.ar         1 VH11362   0.0000
    25 CAW         48.8090   -11.6690    25.3680 C.ar         1 VH11362   0.0000
    26 CAT         47.6530   -10.8870    25.3300 C.2          1 VH11362   0.0000
    27 OAB         46.7960   -10.9340    26.1950 O.2          1 VH11362   0.0000
    28 HAJ         45.8130    -8.3271    26.8355 H            1 VH11362   0.0000
    29 HAH         45.9938    -6.1124    27.7542 H            1 VH11362   0.0000
    30 HAA1        46.8374    -3.1707    25.8845 H            1 VH11362   0.0000
    31 HAA2        46.3977    -3.7855    27.4429 H            1 VH11362   0.0000
    32 HAI         47.0338    -4.6437    24.0123 H            1 VH11362   0.0000
    33 HAK         46.9340    -6.8692    23.1174 H            1 VH11362   0.0000
    34 HAP1        45.9972    -9.0377    23.3243 H            1 VH11362   0.0000
    35 HAP2        45.5493    -9.6624    24.7650 H            1 VH11362   0.0000
    36 HAO         50.3592    -9.8149    21.5310 H            1 VH11362   0.0000
    37 HAN         52.6747   -12.7322    23.3445 H            1 VH11362   0.0000
    38 HAL         51.9529   -13.8034    25.4359 H            1 VH11362   0.0000
    39 HAG         50.3379   -14.0472    27.2035 H            1 VH11362   0.0000
    40 HAM         48.3400   -12.6825    27.1451 H            1 VH11362   0.0000
@<TRIPOS>BOND
     1    1    2      ar
     2    1    7      ar
     3    2    3      ar
     4    3    4       1
     5    3    5      ar
     6    5    6      ar
     7    6    7      ar
     8    7    8       1
     9    8    9       1
    10    9   10      am
    11    9   26      am
    12   10   11       2
    13   10   12       1
    14   12   13      ar
    15   12   14      ar
    16   13   21      ar
    17   13   25      ar
    18   14   15      ar
    19   15   16       1
    20   15   20      ar
    21   16   17      ar
    22   16   18      ar
    23   16   19      ar
    24   20   21      ar
    25   21   22      ar
    26   22   23      ar
    27   23   24      ar
    28   24   25      ar
    29   25   26       1
    30   26   27       2
    31    1   28       1
    32    2   29       1
    33    4   30       1
    34    4   31       1
    35    5   32       1
    36    6   33       1
    37    8   34       1
    38    8   35       1
    39   14   36       1
    40   24   40       1
    41   20   37       1
    42   22   38       1
    43   23   39       1
@<TRIPOS>SUBSTRUCTURE
     1 VH11362     1 GROUP             4 A     VH1     0 **** VH1 A1362
