@<TRIPOS>MOLECULE
3zg6_APR_1_ligand
   55    58     1     0     0
SMALL
NO_CHARGES


@<TRIPOS>ATOM
     1 N1          26.9850   -20.3600    26.3880 N.ar         1 APR1296   0.0000
     2 C2          28.0440   -19.8600    25.6660 C.ar         1 APR1296   0.0000
     3 N3          29.2140   -20.5210    25.6830 N.ar         1 APR1296   0.0000
     4 C4          29.3440   -21.6910    26.3790 C.ar         1 APR1296   0.0000
     5 C5          28.2450   -22.1950    27.1450 C.ar         1 APR1296   0.0000
     6 C6          26.9970   -21.4320    27.1330 C.ar         1 APR1296   0.0000
     7 N6          25.8980   -21.8600    27.8310 N.pl3        1 APR1296   0.0000
     8 N7          28.6370   -23.3270    27.7300 N.2          1 APR1296   0.0000
     9 C8          29.9360   -23.5540    27.4130 C.2          1 APR1296   0.0000
    10 N9          30.3110   -22.5350    26.5980 N.pl3        1 APR1296   0.0000
    11 C1'         31.6240   -22.4800    25.9130 C.3          1 APR1296   0.0000
    12 C2'         32.8040   -22.9990    26.7120 C.3          1 APR1296   0.0000
    13 O2'         33.3270   -21.7390    27.2190 O.3          1 APR1296   0.0000
    14 C3'         33.7040   -23.6330    25.6250 C.3          1 APR1296   0.0000
    15 O3'         34.7050   -22.7150    25.1500 O.3          1 APR1296   0.0000
    16 O4'         31.5120   -23.4400    24.8230 O.3          1 APR1296   0.0000
    17 C4'         32.8290   -23.8570    24.3800 C.3          1 APR1296   0.0000
    18 C5'         32.9190   -25.3570    24.0630 C.3          1 APR1296   0.0000
    19 O5'         34.2330   -25.6010    23.5380 O.3          1 APR1296   0.0000
    20 PA          34.8450   -27.0110    23.6650 P.3          1 APR1296   0.0000
    21 O1A         34.5150   -27.6470    24.9870 O.co2        1 APR1296   0.0000
    22 O2A         36.2390   -26.8940    23.1290 O.co2        1 APR1296  -1.0000
    23 O3A         33.8850   -27.9090    22.7190 O.3          1 APR1296   0.0000
    24 PB          33.9500   -27.8560    21.1090 P.3          1 APR1296   0.0000
    25 O1B         34.5280   -26.6230    20.5320 O.co2        1 APR1296   0.0000
    26 O2B         32.5950   -28.3090    20.5980 O.co2        1 APR1296  -1.0000
    27 O5D         34.9630   -29.0640    20.9060 O.3          1 APR1296   0.0000
    28 C5D         35.3370   -29.4870    19.5800 C.3          1 APR1296   0.0000
    29 O4D         36.6680   -31.1860    20.6790 O.3          1 APR1296   0.0000
    30 O1D         37.4650   -33.2930    21.7040 O.2          1 APR1296   0.0000
    31 C1D         36.5830   -32.5720    20.9140 C.2          1 APR1296   0.0000
    32 O2D         35.4990   -33.8480    19.4860 O.3          1 APR1296   0.0000
    33 C2D         35.1910   -33.0890    20.6930 C.3          1 APR1296   0.0000
    34 O3D         33.5370   -32.1130    19.1420 O.3          1 APR1296   0.0000
    35 C3D         34.4880   -31.8450    20.1620 C.3          1 APR1296   0.0000
    36 C4D         35.6410   -30.9590    19.6650 C.3          1 APR1296   0.0000
    37 H1          27.9447   -19.0175    25.1366 H            1 APR1296   0.0000
    38 H2          25.9517   -22.6875    28.3899 H            1 APR1296   0.0000
    39 H3          25.0424   -21.3448    27.7814 H            1 APR1296   0.0000
    40 H4          30.5037   -24.3185    27.7183 H            1 APR1296   0.0000
    41 H1'         31.8061   -21.5612    25.5627 H            1 APR1296   0.0000
    42 H2'         32.5431   -23.6396    27.4342 H            1 APR1296   0.0000
    43 H7          32.8967   -21.5286    28.0968 H            1 APR1296   0.0000
    44 H3'         34.1136   -24.4882    25.9426 H            1 APR1296   0.0000
    45 H9          35.5304   -22.8042    25.7074 H            1 APR1296   0.0000
    46 H4'         33.1452   -23.3034    23.6096 H            1 APR1296   0.0000
    47 H5'1        32.2273   -25.6062    23.3851 H            1 APR1296   0.0000
    48 H5'2        32.7777   -25.8924    24.8957 H            1 APR1296   0.0000
    49 H5D1        36.1459   -28.9852    19.2735 H            1 APR1296   0.0000
    50 H5D2        34.5838   -29.3269    18.9419 H            1 APR1296   0.0000
    51 H2D         35.3718   -33.2646    18.6838 H            1 APR1296   0.0000
    52 H16         34.7551   -33.5790    21.4479 H            1 APR1296   0.0000
    53 H3D         32.8080   -31.4294    19.1779 H            1 APR1296   0.0000
    54 H18         34.0283   -31.3835    20.9208 H            1 APR1296   0.0000
    55 H4D         35.9630   -31.2894    18.7778 H            1 APR1296   0.0000
@<TRIPOS>BOND
     1    1    2      ar
     2    1    6      ar
     3    2    3      ar
     4    3    4      ar
     5    4    5      ar
     6    4   10       1
     7    5    6      ar
     8    5    8       1
     9    6    7       1
    10    8    9       2
    11    9   10       1
    12   10   11       1
    13   11   12       1
    14   11   16       1
    15   12   13       1
    16   12   14       1
    17   14   15       1
    18   14   17       1
    19   16   17       1
    20   17   18       1
    21   18   19       1
    22   19   20       1
    23   20   21      ar
    24   20   22      ar
    25   20   23       1
    26   23   24       1
    27   24   25      ar
    28   24   26      ar
    29   24   27       1
    30   27   28       1
    31   28   36       1
    32   29   31       1
    33   29   36       1
    34   30   31       2
    35   31   33       1
    36   32   33       1
    37   33   35       1
    38   34   35       1
    39   35   36       1
    40    2   37       1
    41    7   38       1
    42    7   39       1
    43    9   40       1
    44   11   41       1
    45   12   42       1
    46   13   43       1
    47   14   44       1
    48   15   45       1
    49   17   46       1
    50   18   47       1
    51   18   48       1
    52   36   55       1
    53   35   54       1
    54   28   49       1
    55   28   50       1
    56   32   51       1
    57   33   52       1
    58   34   53       1
@<TRIPOS>SUBSTRUCTURE
     1 APR1296     1 GROUP             4 A     APR     0 **** APR A1296
