@<TRIPOS>MOLECULE
4uzi_IMD_1_ligand
    9     9     1     0     0
SMALL
NO_CHARGES


@<TRIPOS>ATOM
     1 N1          15.9420    -5.4770    12.9120 N.2          1 IMD1454   0.0000
     2 C2          17.1850    -5.0600    13.2470 C.2          1 IMD1454   0.0000
     3 N3          17.2540    -4.9350    14.5940 N.pl3        1 IMD1454   0.0000
     4 C4          16.0530    -5.2770    15.1050 C.2          1 IMD1454   0.0000
     5 C5          15.2320    -5.6170    14.0490 C.2          1 IMD1454   0.0000
     6 H1          17.9298    -4.8747    12.6059 H            1 IMD1454   0.0000
     7 H2          15.8031    -5.2830    16.0732 H            1 IMD1454   0.0000
     8 H3          14.2796    -5.9144    14.1156 H            1 IMD1454   0.0000
     9 H4          18.0539    -4.6411    15.1173 H            1 IMD1454   0.0000
@<TRIPOS>BOND
     1    1    2       2
     2    1    5       1
     3    2    3       1
     4    3    4       1
     5    4    5       2
     6    5    8       1
     7    2    6       1
     8    4    7       1
     9    3    9       1
@<TRIPOS>SUBSTRUCTURE
     1 IMD1454     1 GROUP             4 A     IMD     0 **** IMD A1454
