@<TRIPOS>MOLECULE
4cth_RDF_1_ligand
   69    71     1     0     0
SMALL
NO_CHARGES


@<TRIPOS>ATOM
     1 C1         -50.2450    -4.1010   -13.1080 C.3          1 RDF1759   0.0000
     2 O1         -51.2400    -3.7890   -12.1560 O.3          1 RDF1759   0.0000
     3 C2         -49.2610    -2.9270   -13.0970 C.3          1 RDF1759   0.0000
     4 O2         -48.2850    -3.2310   -14.0720 O.3          1 RDF1759   0.0000
     5 C3         -48.5640    -2.8540   -11.7450 C.3          1 RDF1759   0.0000
     6 O3         -47.4830    -1.9590   -11.7980 O.3          1 RDF1759   0.0000
     7 C4         -47.9370    -4.1690   -11.3660 C.3          1 RDF1759   0.0000
     8 O4         -47.5510    -4.0090   -10.0280 O.3          1 RDF1759   0.0000
     9 C5         -48.9750    -5.2750   -11.4300 C.3          1 RDF1759   0.0000
    10 O5         -49.5610    -5.3130   -12.7410 O.3          1 RDF1759   0.0000
    11 C6         -48.3100    -6.6080   -11.1630 C.3          1 RDF1759   0.0000
    12 P          -52.7450    -4.2820   -12.3660 P.3          1 RDF1759   0.0000
    13 O1P        -53.5250    -3.8710   -11.1520 O.co2        1 RDF1759   0.0000
    14 O2P        -52.5160    -5.9000   -12.4640 O.co2        1 RDF1759  -1.0000
    15 N          -53.2860    -3.7290   -13.8290 N.3          1 RDF1759   0.0000
    16 CA         -54.1950    -4.5050   -14.6660 C.3          1 RDF1759   0.0000
    17 C          -53.4520    -5.4270   -15.5890 C.2          1 RDF1759   0.0000
    18 O          -53.8960    -6.5510   -15.7860 O.2          1 RDF1759   0.0000
    19 CB         -55.0760    -3.5530   -15.4540 C.3          1 RDF1759   0.0000
    20 CG         -56.0810    -4.2300   -16.3610 C.3          1 RDF1759   0.0000
    21 CD1        -57.2710    -4.8150   -15.6110 C.3          1 RDF1759   0.0000
    22 CD2        -56.5330    -3.2280   -17.3880 C.3          1 RDF1759   0.0000
    23 N1         -52.3180    -4.9060   -16.1910 N.am         1 RDF1759   0.0000
    24 CA1        -51.5560    -5.7290   -17.1140 C.3          1 RDF1759   0.0000
    25 C7         -50.1100    -5.3130   -17.0890 C.2          1 RDF1759   0.0000
    26 O6         -49.2100    -5.9690   -17.5880 O.co2        1 RDF1759   0.0000
    27 CB1        -52.0500    -5.6840   -18.5630 C.3          1 RDF1759   0.0000
    28 CG1        -52.4410    -4.3600   -19.1140 C.2          1 RDF1759   0.0000
    29 CD11       -51.9220    -3.1340   -18.7610 C.2          1 RDF1759   0.0000
    30 CD21       -53.4190    -4.0990   -20.1250 C.ar         1 RDF1759   0.0000
    31 NE1        -52.5390    -2.1720   -19.4920 N.pl3        1 RDF1759   0.0000
    32 CE2        -53.4670    -2.7230   -20.3290 C.ar         1 RDF1759   0.0000
    33 CE3        -54.2390    -4.9120   -20.9060 C.ar         1 RDF1759   0.0000
    34 CZ2        -54.2980    -2.0940   -21.2400 C.ar         1 RDF1759   0.0000
    35 CZ3        -55.0750    -4.3060   -21.8210 C.ar         1 RDF1759   0.0000
    36 CH2        -55.1070    -2.9390   -21.9710 C.ar         1 RDF1759   0.0000
    37 OXT        -49.8760    -4.1340   -16.4640 O.co2        1 RDF1759  -1.0000
    38 H1         -50.6548    -4.1982   -14.0150 H            1 RDF1759   0.0000
    39 H2         -49.7251    -2.0670   -13.3090 H            1 RDF1759   0.0000
    40 H3         -48.7245    -3.3267   -14.9651 H            1 RDF1759   0.0000
    41 H4         -49.2125    -2.5673   -11.0398 H            1 RDF1759   0.0000
    42 H5         -46.6368    -2.4450   -11.5793 H            1 RDF1759   0.0000
    43 H6         -47.1504    -4.3763   -11.9477 H            1 RDF1759   0.0000
    44 H7         -48.0189    -4.6883    -9.4626 H            1 RDF1759   0.0000
    45 H8         -49.6865    -5.1100   -10.7470 H            1 RDF1759   0.0000
    46 H9         -48.9941    -7.3362   -11.2053 H            1 RDF1759   0.0000
    47 H10        -47.6048    -6.7727   -11.8526 H            1 RDF1759   0.0000
    48 H11        -47.8917    -6.5959   -10.2548 H            1 RDF1759   0.0000
    49 H12        -53.7478    -2.8611   -13.6458 H            1 RDF1759   0.0000
    50 HA         -54.7792    -5.0569   -14.0709 H            1 RDF1759   0.0000
    51 HB1        -54.4854    -2.9762   -16.0183 H            1 RDF1759   0.0000
    52 HB2        -55.5774    -2.9818   -14.8042 H            1 RDF1759   0.0000
    53 HG         -55.6165    -4.9762   -16.8378 H            1 RDF1759   0.0000
    54 HD11       -57.8959    -5.2463   -16.2618 H            1 RDF1759   0.0000
    55 HD12       -56.9488    -5.4980   -14.9555 H            1 RDF1759   0.0000
    56 HD13       -57.7494    -4.0847   -15.1234 H            1 RDF1759   0.0000
    57 HD21       -57.1992    -3.6549   -17.9996 H            1 RDF1759   0.0000
    58 HD22       -56.9553    -2.4468   -16.9282 H            1 RDF1759   0.0000
    59 HD23       -55.7450    -2.9162   -17.9189 H            1 RDF1759   0.0000
    60 H23        -52.0264    -3.9705   -15.9916 H            1 RDF1759   0.0000
    61 HA1        -51.6099    -6.6766   -16.7990 H            1 RDF1759   0.0000
    62 HB11       -52.8488    -6.2823   -18.6258 H            1 RDF1759   0.0000
    63 HB12       -51.3174    -6.0443   -19.1405 H            1 RDF1759   0.0000
    64 H27        -51.2080    -2.9786   -18.0783 H            1 RDF1759   0.0000
    65 HE1        -52.3415    -1.1939   -19.4269 H            1 RDF1759   0.0000
    66 HE3        -54.2217    -5.9068   -20.8058 H            1 RDF1759   0.0000
    67 HZ2        -54.3109    -1.1012   -21.3593 H            1 RDF1759   0.0000
    68 HZ3        -55.6715    -4.8737   -22.3883 H            1 RDF1759   0.0000
    69 HH2        -55.7408    -2.5427   -22.6352 H            1 RDF1759   0.0000
@<TRIPOS>BOND
     1    1    2       1
     2    1    3       1
     3    1   10       1
     4    2   12       1
     5    3    4       1
     6    3    5       1
     7    5    6       1
     8    5    7       1
     9    7    8       1
    10    7    9       1
    11    9   10       1
    12    9   11       1
    13   12   13      ar
    14   12   14      ar
    15   12   15       1
    16   15   16       1
    17   16   17       1
    18   16   19       1
    19   17   18       2
    20   17   23      am
    21   19   20       1
    22   20   21       1
    23   20   22       1
    24   23   24       1
    25   24   25       1
    26   24   27       1
    27   25   26      ar
    28   25   37      ar
    29   27   28       1
    30   28   29       2
    31   28   30       1
    32   29   31       1
    33   30   32      ar
    34   30   33      ar
    35   31   32       1
    36   32   34      ar
    37   33   35      ar
    38   34   36      ar
    39   35   36      ar
    40    1   38       1
    41    3   39       1
    42    4   40       1
    43    5   41       1
    44    6   42       1
    45    7   43       1
    46    8   44       1
    47    9   45       1
    48   11   46       1
    49   11   47       1
    50   11   48       1
    51   36   69       1
    52   15   49       1
    53   16   50       1
    54   19   51       1
    55   19   52       1
    56   20   53       1
    57   21   54       1
    58   21   55       1
    59   21   56       1
    60   22   57       1
    61   22   58       1
    62   22   59       1
    63   23   60       1
    64   24   61       1
    65   35   68       1
    66   27   62       1
    67   27   63       1
    68   29   64       1
    69   31   65       1
    70   33   66       1
    71   34   67       1
@<TRIPOS>SUBSTRUCTURE
     1 RDF1759     1 GROUP             4 A     RDF     0 **** RDF A1759
