@<TRIPOS>MOLECULE
2p4s_DIH_1_ligand
   36    38     1     0     0
SMALL
NO_CHARGES


@<TRIPOS>ATOM
     1 O5'         40.8270     5.0450   106.3490 O.3          1 DIH401   0.0000
     2 C5'         39.8860     4.0540   106.8070 C.3          1 DIH401   0.0000
     3 C4'         38.5160     4.5440   106.4060 C.3          1 DIH401   0.0000
     4 C6'         38.4480     4.8610   104.8950 C.3          1 DIH401   0.0000
     5 C3'         37.4800     3.4770   106.6860 C.3          1 DIH401   0.0000
     6 O3'         36.2630     4.1260   107.0600 O.3          1 DIH401   0.0000
     7 C2'         37.2610     2.8240   105.3340 C.3          1 DIH401   0.0000
     8 N1'         37.3440     3.9900   104.3990 N.4          1 DIH401   1.0000
     9 C10         37.3790     3.5290   103.0030 C.3          1 DIH401   0.0000
    10 C9          38.6840     3.0000   102.4480 C.2          1 DIH401   0.0000
    11 C8          39.6920     3.7860   101.8280 C.2          1 DIH401   0.0000
    12 N7          40.6970     2.9590   101.4280 N.pl3        1 DIH401   0.0000
    13 C5          40.3910     1.6770   101.7580 C.2          1 DIH401   0.0000
    14 C6          41.0470     0.3570   101.5360 C.2          1 DIH401   0.0000
    15 O6          42.1990     0.2510   100.9440 O.2          1 DIH401   0.0000
    16 N1          40.3700    -0.7130   102.0030 N.pl3        1 DIH401   0.0000
    17 C2          39.1630    -0.6330   102.6410 C.2          1 DIH401   0.0000
    18 N3          38.5270     0.5340   102.8280 N.2          1 DIH401   0.0000
    19 C4          39.1340     1.6860   102.3850 C.2          1 DIH401   0.0000
    20 H5'         40.6220     5.9237   106.7801 H            1 DIH401   0.0000
    21 H5'1        39.9413     3.9588   107.8009 H            1 DIH401   0.0000
    22 H5'2        40.0768     3.1718   106.3765 H            1 DIH401   0.0000
    23 H4'         38.2929     5.3675   106.9277 H            1 DIH401   0.0000
    24 H6'1        39.3111     4.6339   104.4440 H            1 DIH401   0.0000
    25 H6'2        38.2362     5.8264   104.7426 H            1 DIH401   0.0000
    26 H3'         37.7878     2.8228   107.3768 H            1 DIH401   0.0000
    27 H8          35.9565     4.7158   106.3129 H            1 DIH401   0.0000
    28 H2'1        36.3643     2.3840   105.2854 H            1 DIH401   0.0000
    29 H2'2        37.9738     2.1507   105.1374 H            1 DIH401   0.0000
    30 H11         37.1068     4.3022   102.4302 H            1 DIH401   0.0000
    31 H12         36.7036     2.7966   102.9173 H            1 DIH401   0.0000
    32 H13         39.6676     4.7782   101.7061 H            1 DIH401   0.0000
    33 H14         41.5326     3.2506   100.9625 H            1 DIH401   0.0000
    34 H15         40.7751    -1.6183   101.8749 H            1 DIH401   0.0000
    35 H16         38.7396    -1.4732   102.9799 H            1 DIH401   0.0000
    36 H1'         36.4962     4.5087   104.5097 H            1 DIH401   0.0000
@<TRIPOS>BOND
     1    1    2       1
     2    2    3       1
     3    3    4       1
     4    3    5       1
     5    4    8       1
     6    5    6       1
     7    5    7       1
     8    7    8       1
     9    8    9       1
    10    9   10       1
    11   10   11       2
    12   10   19       1
    13   11   12       1
    14   12   13       1
    15   13   14       1
    16   13   19       2
    17   14   15       2
    18   14   16       1
    19   16   17       1
    20   17   18       2
    21   18   19       1
    22    1   20       1
    23    2   21       1
    24    2   22       1
    25    3   23       1
    26    4   24       1
    27    4   25       1
    28    5   26       1
    29    6   27       1
    30    7   28       1
    31    7   29       1
    32    9   30       1
    33    9   31       1
    34   11   32       1
    35   12   33       1
    36   16   34       1
    37   17   35       1
    38    8   36       1
@<TRIPOS>SUBSTRUCTURE
     1 DIH401      1 GROUP             4 A     DIH     0 **** DIH A 401
