@<TRIPOS>MOLECULE
3s43_478_1_ligand
   70    72     1     0     0
SMALL
NO_CHARGES


@<TRIPOS>ATOM
     1 C1          12.6350    18.2260    19.7570 C.3          1 478401   0.0000
     2 C2          14.6010    19.0590    20.8660 C.3          1 478401   0.0000
     3 C3          14.7900    20.7470    18.3190 C.2          1 478401   0.0000
     4 C4          13.9950    18.8340    19.4730 C.3          1 478401   0.0000
     5 C5          15.2610    22.9200    17.1960 C.3          1 478401   0.0000
     6 C6          15.6900    24.0290    18.1510 C.3          1 478401   0.0000
     7 C7          14.4680    23.3860    15.9600 C.3          1 478401   0.0000
     8 C8          14.0620    22.2520    15.0600 C.ar         1 478401   0.0000
     9 C9          12.7810    21.7330    15.0120 C.ar         1 478401   0.0000
    10 C10         15.0160    21.6200    14.2340 C.ar         1 478401   0.0000
    11 C11         12.4870    20.5960    14.2590 C.ar         1 478401   0.0000
    12 C12         14.7740    20.5230    13.4130 C.ar         1 478401   0.0000
    13 C13         13.4750    20.0120    13.4750 C.ar         1 478401   0.0000
    14 C14         16.7510    24.9870    17.5370 C.3          1 478401   0.0000
    15 C15         18.9000    24.6650    18.6800 C.3          1 478401   0.0000
    16 C16         18.6410    23.9570    20.0300 C.3          1 478401   0.0000
    17 C17         19.4650    25.4270    15.4260 C.ar         1 478401   0.0000
    18 C18         18.7070    26.2940    14.6320 C.ar         1 478401   0.0000
    19 C19         19.2470    27.5290    14.2230 C.ar         1 478401   0.0000
    20 C20         20.5110    27.9530    14.6620 C.ar         1 478401   0.0000
    21 C21         21.2690    27.0370    15.4200 C.ar         1 478401   0.0000
    22 C22         20.6950    25.8680    15.8650 C.ar         1 478401   0.0000
    23 C23         18.8800    22.4520    19.8730 C.3          1 478401   0.0000
    24 C24         19.6650    24.5510    21.0080 C.3          1 478401   0.0000
    25 C25         13.5080    18.6350    21.8460 C.3          1 478401   0.0000
    26 N1          14.4280    21.9640    17.9130 N.am         1 478401   0.0000
    27 N2          18.0700    24.3890    17.5710 N.3          1 478401   0.0000
    28 N3          21.1210    29.0360    14.1780 N.pl3        1 478401   0.0000
    29 O1          13.7140    20.1220    18.9310 O.3          1 478401   0.0000
    30 O2          15.8990    20.2770    18.2330 O.2          1 478401   0.0000
    31 O3          14.5730    24.8820    18.4580 O.3          1 478401   0.0000
    32 O4          17.6490    23.6920    15.1640 O.2          1 478401   0.0000
    33 O5          19.7190    22.9040    16.3290 O.2          1 478401   0.0000
    34 O6          12.3130    18.6930    21.0730 O.3          1 478401   0.0000
    35 S1          18.7460    23.9790    16.1310 S.o2         1 478401   0.0000
    36 H1          12.6809    17.2273    19.7358 H            1 478401   0.0000
    37 H2          11.9584    18.5428    19.0922 H            1 478401   0.0000
    38 H3          14.8351    20.0225    20.9960 H            1 478401   0.0000
    39 H4          15.4195    18.4977    20.9880 H            1 478401   0.0000
    40 H5          14.5663    18.2687    18.8779 H            1 478401   0.0000
    41 H6          16.0819    22.4444    16.8800 H            1 478401   0.0000
    42 H7          16.0477    23.6271    18.9939 H            1 478401   0.0000
    43 H8          15.0374    24.0199    15.4366 H            1 478401   0.0000
    44 H9          13.6426    23.8577    16.2703 H            1 478401   0.0000
    45 H10         12.0509    22.1817    15.5274 H            1 478401   0.0000
    46 H11         15.9442    21.9920    14.2392 H            1 478401   0.0000
    47 H12         11.5681    20.2023    14.2832 H            1 478401   0.0000
    48 H13         15.4780    20.1292    12.8220 H            1 478401   0.0000
    49 H14         13.2488    19.1995    12.9377 H            1 478401   0.0000
    50 H15         16.7644    25.8390    18.0603 H            1 478401   0.0000
    51 H16         16.5048    25.1827    16.5877 H            1 478401   0.0000
    52 H17         19.8340    24.4345    18.4069 H            1 478401   0.0000
    53 H18         18.8359    25.6480    18.8518 H            1 478401   0.0000
    54 H19         17.7090    24.1338    20.3465 H            1 478401   0.0000
    55 H20         17.7813    26.0369    14.3546 H            1 478401   0.0000
    56 H21         18.7196    28.1151    13.6079 H            1 478401   0.0000
    57 H22         22.2250    27.2371    15.6345 H            1 478401   0.0000
    58 H23         21.1910    25.3154    16.5348 H            1 478401   0.0000
    59 H24         18.7123    21.9949    20.7465 H            1 478401   0.0000
    60 H25         18.2581    22.0862    19.1806 H            1 478401   0.0000
    61 H26         19.8256    22.2924    19.5895 H            1 478401   0.0000
    62 H27         19.5490    24.1308    21.9080 H            1 478401   0.0000
    63 H28         20.5897    24.3708    20.6726 H            1 478401   0.0000
    64 H29         19.5231    25.5382    21.0803 H            1 478401   0.0000
    65 H30         13.4612    19.2651    22.6211 H            1 478401   0.0000
    66 H31         13.6706    17.7067    22.1804 H            1 478401   0.0000
    67 H32         13.4923    22.2488    18.1212 H            1 478401   0.0000
    68 H33         22.0223    29.2983    14.5228 H            1 478401   0.0000
    69 H34         20.6770    29.5857    13.4704 H            1 478401   0.0000
    70 H35         14.5314    25.6286    17.7941 H            1 478401   0.0000
@<TRIPOS>BOND
     1    1    4       1
     2    1   34       1
     3    2    4       1
     4    2   25       1
     5    3   26      am
     6    3   29       1
     7    3   30       2
     8    4   29       1
     9    5    6       1
    10    5    7       1
    11    5   26       1
    12    6   14       1
    13    6   31       1
    14    7    8       1
    15    8    9      ar
    16    8   10      ar
    17    9   11      ar
    18   10   12      ar
    19   11   13      ar
    20   12   13      ar
    21   14   27       1
    22   15   16       1
    23   15   27       1
    24   16   23       1
    25   16   24       1
    26   17   18      ar
    27   17   22      ar
    28   17   35       1
    29   18   19      ar
    30   19   20      ar
    31   20   21      ar
    32   20   28       1
    33   21   22      ar
    34   25   34       1
    35   27   35       1
    36   32   35       2
    37   33   35       2
    38    1   36       1
    39    1   37       1
    40    2   38       1
    41    2   39       1
    42    4   40       1
    43    5   41       1
    44    6   42       1
    45    7   43       1
    46    7   44       1
    47    9   45       1
    48   10   46       1
    49   11   47       1
    50   12   48       1
    51   13   49       1
    52   14   50       1
    53   14   51       1
    54   15   52       1
    55   15   53       1
    56   16   54       1
    57   18   55       1
    58   19   56       1
    59   21   57       1
    60   22   58       1
    61   23   59       1
    62   23   60       1
    63   23   61       1
    64   24   62       1
    65   24   63       1
    66   24   64       1
    67   25   65       1
    68   25   66       1
    69   26   67       1
    70   28   68       1
    71   28   69       1
    72   31   70       1
@<TRIPOS>SUBSTRUCTURE
     1 478401      1 GROUP             4 A     478     0 **** 478 A 401
