@<TRIPOS>MOLECULE
4l52_1UL_1_ligand
   54    59     1     0     0
SMALL
NO_CHARGES


@<TRIPOS>ATOM
     1 O1         -23.4860   -49.9850   -21.7180 O.2          1 1UL501   0.0000
     2 C1         -23.1710   -48.9010   -21.2410 C.2          1 1UL501   0.0000
     3 C23        -23.2970   -47.6570   -22.0790 C.3          1 1UL501   0.0000
     4 N1         -22.7170   -48.7900   -19.9750 N.am         1 1UL501   0.0000
     5 C22        -22.2970   -47.5400   -19.3310 C.3          1 1UL501   0.0000
     6 C21        -20.7770   -47.6780   -19.2010 C.3          1 1UL501   0.0000
     7 C4         -20.4430   -48.8850   -18.3240 C.3          1 1UL501   0.0000
     8 C3         -21.0530   -50.1550   -18.9320 C.3          1 1UL501   0.0000
     9 C2         -22.5600   -49.9570   -19.0980 C.3          1 1UL501   0.0000
    10 N2         -18.9790   -49.0340   -18.0900 N.pl3        1 1UL501   0.0000
    11 C7         -18.1710   -48.4020   -17.2550 C.2          1 1UL501   0.0000
    12 C6         -16.9060   -48.9540   -17.4090 C.2          1 1UL501   0.0000
    13 C5         -17.0190   -49.9520   -18.3810 C.2          1 1UL501   0.0000
    14 N3         -18.3020   -50.0230   -18.8100 N.2          1 1UL501   0.0000
    15 C8         -15.7730   -48.5470   -16.6950 C.ar         1 1UL501   0.0000
    16 C14        -15.8840   -47.4800   -15.7990 C.ar         1 1UL501   0.0000
    17 N4         -14.8370   -47.0280   -15.0790 N.ar         1 1UL501   0.0000
    18 C13        -13.6290   -47.5950   -15.1700 C.ar         1 1UL501   0.0000
    19 N5         -12.5820   -47.1410   -14.4430 N.pl3        1 1UL501   0.0000
    20 C12        -13.4970   -48.6500   -16.0360 C.ar         1 1UL501   0.0000
    21 C9         -14.5170   -49.1510   -16.7920 C.ar         1 1UL501   0.0000
    22 O2         -12.3240   -49.3860   -16.2870 O.2          1 1UL501   0.0000
    23 C11        -12.5360   -50.3010   -17.1350 C.2          1 1UL501   0.0000
    24 C10        -13.8880   -50.2250   -17.5140 C.2          1 1UL501   0.0000
    25 C15        -11.5830   -51.1800   -17.6190 C.ar         1 1UL501   0.0000
    26 C20        -10.3400   -51.2200   -17.0240 C.ar         1 1UL501   0.0000
    27 S           -9.8850   -50.2280   -15.6310 S.3          1 1UL501   0.0000
    28 N7          -8.2640   -50.9700   -15.6220 N.2          1 1UL501   0.0000
    29 N6          -8.2150   -51.9210   -16.6880 N.2          1 1UL501   0.0000
    30 C19         -9.3290   -52.0640   -17.4680 C.ar         1 1UL501   0.0000
    31 C18         -9.5790   -52.8870   -18.5630 C.ar         1 1UL501   0.0000
    32 C17        -10.8250   -52.8490   -19.1970 C.ar         1 1UL501   0.0000
    33 C16        -11.8190   -51.9900   -18.7350 C.ar         1 1UL501   0.0000
    34 H1         -23.0017   -46.8644   -21.5455 H            1 1UL501   0.0000
    35 H2         -22.7225   -47.7438   -22.8929 H            1 1UL501   0.0000
    36 H3         -24.2505   -47.5364   -22.3553 H            1 1UL501   0.0000
    37 H4         -22.7228   -47.4438   -18.4313 H            1 1UL501   0.0000
    38 H5         -22.5345   -46.7514   -19.8982 H            1 1UL501   0.0000
    39 H6         -20.4024   -46.8500   -18.7838 H            1 1UL501   0.0000
    40 H7         -20.3758   -47.8049   -20.1082 H            1 1UL501   0.0000
    41 H8         -20.8763   -48.7395   -17.4346 H            1 1UL501   0.0000
    42 H9         -20.8822   -50.9317   -18.3258 H            1 1UL501   0.0000
    43 H10        -20.6382   -50.3313   -19.8247 H            1 1UL501   0.0000
    44 H11        -22.9732   -50.7655   -19.5171 H            1 1UL501   0.0000
    45 H12        -22.9884   -49.7858   -18.2108 H            1 1UL501   0.0000
    46 H13        -18.4239   -47.6641   -16.6293 H            1 1UL501   0.0000
    47 H14        -16.2683   -50.5254   -18.7092 H            1 1UL501   0.0000
    48 H15        -16.7727   -47.0353   -15.6877 H            1 1UL501   0.0000
    49 H16        -11.6874   -47.5800   -14.5266 H            1 1UL501   0.0000
    50 H17        -12.7028   -46.3665   -13.8221 H            1 1UL501   0.0000
    51 H18        -14.3394   -50.8211   -18.1780 H            1 1UL501   0.0000
    52 H19         -8.8673   -53.5055   -18.8962 H            1 1UL501   0.0000
    53 H20        -11.0026   -53.4400   -19.9839 H            1 1UL501   0.0000
    54 H21        -12.7027   -51.9521   -19.2016 H            1 1UL501   0.0000
@<TRIPOS>BOND
     1    1    2       2
     2    2    3       1
     3    2    4      am
     4    4    5       1
     5    4    9       1
     6    5    6       1
     7    6    7       1
     8    7    8       1
     9    7   10       1
    10    8    9       1
    11   10   11       1
    12   10   14       1
    13   11   12       2
    14   12   13       1
    15   12   15       1
    16   13   14       2
    17   15   16      ar
    18   15   21      ar
    19   16   17      ar
    20   17   18      ar
    21   18   19       1
    22   18   20      ar
    23   20   21      ar
    24   20   22       1
    25   21   24       1
    26   22   23       1
    27   23   24       2
    28   23   25       1
    29   25   26      ar
    30   25   33      ar
    31   26   27       1
    32   26   30      ar
    33   27   28       1
    34   28   29       2
    35   29   30       1
    36   30   31      ar
    37   31   32      ar
    38   32   33      ar
    39    3   34       1
    40    3   35       1
    41    3   36       1
    42    5   37       1
    43    5   38       1
    44    6   39       1
    45    6   40       1
    46    7   41       1
    47    8   42       1
    48    8   43       1
    49    9   44       1
    50    9   45       1
    51   11   46       1
    52   13   47       1
    53   16   48       1
    54   19   49       1
    55   19   50       1
    56   24   51       1
    57   31   52       1
    58   32   53       1
    59   33   54       1
@<TRIPOS>SUBSTRUCTURE
     1 1UL501      1 GROUP             4 A     1UL     0 **** 1UL A 501
