@<TRIPOS>MOLECULE
1pt9_TAP_2_ligand
   73    77     1     0     0
SMALL
NO_CHARGES


@<TRIPOS>ATOM
     1 PA           2.8530    23.2480    20.4420 P.3          1 TAP301   0.0000
     2 O1A          2.8240    23.6230    19.1110 O.co2        1 TAP301   0.0000
     3 O2A          3.1990    23.8620    21.6890 O.co2        1 TAP301  -1.0000
     4 O5B          2.3380    21.7780    20.5260 O.3          1 TAP301   0.0000
     5 C5B          1.6570    21.3440    21.6760 C.3          1 TAP301   0.0000
     6 C4B          0.6660    20.3820    21.1040 C.3          1 TAP301   0.0000
     7 O4B          0.4490    19.1740    21.8000 O.3          1 TAP301   0.0000
     8 C3B         -0.6360    21.1950    21.1540 C.3          1 TAP301   0.0000
     9 O3B         -1.1980    21.8530    20.0250 O.3          1 TAP301   0.0000
    10 C2B         -1.6530    20.2940    21.8560 C.3          1 TAP301   0.0000
    11 O2B         -2.8080    20.0190    21.0380 O.3          1 TAP301   0.0000
    12 C1B         -0.9070    18.9860    22.1500 C.3          1 TAP301   0.0000
    13 N9A         -1.0160    18.4350    23.5170 N.pl3        1 TAP301   0.0000
    14 C8A         -0.8980    19.0610    24.7430 C.2          1 TAP301   0.0000
    15 N7A         -1.0850    18.1520    25.7160 N.2          1 TAP301   0.0000
    16 C5A         -1.3100    17.0000    25.1070 C.ar         1 TAP301   0.0000
    17 C6A         -1.5690    15.7300    25.6260 C.ar         1 TAP301   0.0000
    18 N6A         -1.6220    15.5230    26.9350 N.pl3        1 TAP301   0.0000
    19 N1A         -1.7790    14.6450    24.7500 N.ar         1 TAP301   0.0000
    20 C2A         -1.7400    14.8020    23.3950 C.ar         1 TAP301   0.0000
    21 N3A         -1.4890    16.0440    22.9130 N.ar         1 TAP301   0.0000
    22 C4A         -1.2750    17.1420    23.7280 C.ar         1 TAP301   0.0000
    23 O3           4.4080    22.8710    20.3680 O.3          1 TAP301   0.0000
    24 PN           5.7970    22.1930    19.6500 P.3          1 TAP301   0.0000
    25 O1N          5.5690    21.5760    18.3640 O.co2        1 TAP301   0.0000
    26 O2N          6.3790    21.2760    20.6260 O.co2        1 TAP301  -1.0000
    27 O5D          6.4910    23.6280    19.5990 O.3          1 TAP301   0.0000
    28 C5D          6.7770    24.3450    20.8000 C.3          1 TAP301   0.0000
    29 C4D          6.2180    25.7520    20.7350 C.3          1 TAP301   0.0000
    30 O4D          6.5060    26.4500    21.9690 O.3          1 TAP301   0.0000
    31 C3D          6.8330    26.6460    19.6360 C.3          1 TAP301   0.0000
    32 O3D          5.8120    27.5310    19.0960 O.3          1 TAP301   0.0000
    33 C2D          7.9080    27.4590    20.3640 C.3          1 TAP301   0.0000
    34 O2D          8.2850    28.6310    19.6490 O.3          1 TAP301   0.0000
    35 C1D          7.2530    27.6730    21.7150 C.3          1 TAP301   0.0000
    36 N1N          8.2630    27.9290    22.7530 N.ar         1 TAP301   1.0000
    37 C2N          9.4070    27.0540    22.8660 C.ar         1 TAP301   0.0000
    38 C3N         10.3700    27.3070    23.8600 C.ar         1 TAP301   0.0000
    39 C7N         11.5910    26.3900    23.9830 C.2          1 TAP301   0.0000
    40 S7N         12.9970    27.0720    24.3820 S.2          1 TAP301   0.0000
    41 N7N         11.5840    25.0820    23.7590 N.pl3        1 TAP301   0.0000
    42 C4N         10.1570    28.4460    24.7280 C.ar         1 TAP301   0.0000
    43 C5N          9.0120    29.3370    24.6310 C.ar         1 TAP301   0.0000
    44 C6N          8.0470    29.0660    23.6170 C.ar         1 TAP301   0.0000
    45 P2B         -4.2540    19.4690    21.5590 P.3          1 TAP301   0.0000
    46 O1X         -3.9670    18.0910    22.1460 O.co2        1 TAP301   0.0000
    47 O2X         -4.7350    20.4920    22.5000 O.co2        1 TAP301  -1.0000
    48 O3X         -5.1110    19.3180    20.3110 O.co2        1 TAP301  -1.0000
    49 H5B1         1.2006    22.1049    22.1372 H            1 TAP301   0.0000
    50 H5B2         2.2769    20.8899    22.3160 H            1 TAP301   0.0000
    51 H4B          0.9015    20.1836    20.1526 H            1 TAP301   0.0000
    52 H3B         -0.4521    21.9279    21.8090 H            1 TAP301   0.0000
    53 H5          -2.1929    21.8868    20.1200 H            1 TAP301   0.0000
    54 H2B         -1.9417    20.7174    22.7148 H            1 TAP301   0.0000
    55 H1B         -1.2749    18.2951    21.5277 H            1 TAP301   0.0000
    56 H8A         -0.7049    20.0320    24.8838 H            1 TAP301   0.0000
    57 H6A1        -1.8087    14.6066    27.2891 H            1 TAP301   0.0000
    58 H6A2        -1.4753    16.2833    27.5678 H            1 TAP301   0.0000
    59 H2A         -1.8912    14.0285    22.7795 H            1 TAP301   0.0000
    60 H5D1         7.7680    24.3918    20.9255 H            1 TAP301   0.0000
    61 H5D2         6.3653    23.8644    21.5743 H            1 TAP301   0.0000
    62 H4D          5.2274    25.7068    20.6061 H            1 TAP301   0.0000
    63 H3D          7.2391    26.0891    18.9115 H            1 TAP301   0.0000
    64 H16          5.0714    26.9854    18.7038 H            1 TAP301   0.0000
    65 H2D          8.7169    26.8840    20.4870 H            1 TAP301   0.0000
    66 H18          8.9860    29.1245    20.1638 H            1 TAP301   0.0000
    67 H1D          6.6218    28.4469    21.6630 H            1 TAP301   0.0000
    68 H2N          9.5132    26.2775    22.2449 H            1 TAP301   0.0000
    69 H7N1        12.4262    24.5527    23.8614 H            1 TAP301   0.0000
    70 H7N2        10.7365    24.6257    23.4878 H            1 TAP301   0.0000
    71 H4N         10.8380    28.6310    25.4365 H            1 TAP301   0.0000
    72 H5N          8.9052    30.1124    25.2534 H            1 TAP301   0.0000
    73 H6N          7.2414    29.6482    23.5069 H            1 TAP301   0.0000
@<TRIPOS>BOND
     1    1    2      ar
     2    1    3      ar
     3    1    4       1
     4    1   23       1
     5    4    5       1
     6    5    6       1
     7    6    7       1
     8    6    8       1
     9    7   12       1
    10    8    9       1
    11    8   10       1
    12   10   11       1
    13   10   12       1
    14   11   45       1
    15   12   13       1
    16   13   14       1
    17   13   22       1
    18   14   15       2
    19   15   16       1
    20   16   17      ar
    21   16   22      ar
    22   17   18       1
    23   17   19      ar
    24   19   20      ar
    25   20   21      ar
    26   21   22      ar
    27   23   24       1
    28   24   25      ar
    29   24   26      ar
    30   24   27       1
    31   27   28       1
    32   28   29       1
    33   29   30       1
    34   29   31       1
    35   30   35       1
    36   31   32       1
    37   31   33       1
    38   33   34       1
    39   33   35       1
    40   35   36       1
    41   36   37      ar
    42   36   44      ar
    43   37   38      ar
    44   38   39       1
    45   38   42      ar
    46   39   40       2
    47   39   41       1
    48   42   43      ar
    49   43   44      ar
    50   45   46      ar
    51   45   47      ar
    52   45   48      ar
    53   43   72       1
    54    5   49       1
    55    5   50       1
    56    6   51       1
    57    8   52       1
    58    9   53       1
    59   10   54       1
    60   12   55       1
    61   14   56       1
    62   18   57       1
    63   18   58       1
    64   20   59       1
    65   44   73       1
    66   28   60       1
    67   28   61       1
    68   29   62       1
    69   31   63       1
    70   32   64       1
    71   33   65       1
    72   34   66       1
    73   35   67       1
    74   37   68       1
    75   41   69       1
    76   41   70       1
    77   42   71       1
@<TRIPOS>SUBSTRUCTURE
     1 TAP301      1 GROUP             4 B     TAP     0 **** TAP B 301
