@<TRIPOS>MOLECULE
2jg7_NAD_5_ligand
   70    74     1     0     0
SMALL
NO_CHARGES


@<TRIPOS>ATOM
     1 PA         -11.8960    83.3360    72.4610 P.3          1 NAD1510   0.0000
     2 O1A        -12.0710    82.7620    73.8490 O.co2        1 NAD1510   0.0000
     3 O2A        -13.1060    83.8060    71.6840 O.co2        1 NAD1510  -1.0000
     4 O5B        -11.1160    82.2140    71.6140 O.3          1 NAD1510   0.0000
     5 C5B         -9.8030    81.7930    71.9720 C.3          1 NAD1510   0.0000
     6 C4B         -9.5740    80.3730    71.4670 C.3          1 NAD1510   0.0000
     7 O4B        -10.4570    79.4760    72.1460 O.3          1 NAD1510   0.0000
     8 C3B         -9.8580    80.2240    69.9770 C.3          1 NAD1510   0.0000
     9 O3B         -8.7950    79.4560    69.4140 O.3          1 NAD1510   0.0000
    10 C2B        -11.1440    79.4190    69.9220 C.3          1 NAD1510   0.0000
    11 O2B        -11.2770    78.6150    68.7440 O.3          1 NAD1510   0.0000
    12 C1B        -11.0400    78.5860    71.1900 C.3          1 NAD1510   0.0000
    13 N9A        -12.3470    78.0750    71.6730 N.pl3        1 NAD1510   0.0000
    14 C8A        -13.5520    78.6530    71.5280 C.2          1 NAD1510   0.0000
    15 N7A        -14.4870    77.8630    72.1100 N.2          1 NAD1510   0.0000
    16 C5A        -13.8570    76.7860    72.6280 C.ar         1 NAD1510   0.0000
    17 C6A        -14.2860    75.6630    73.3340 C.ar         1 NAD1510   0.0000
    18 N6A        -15.5960    75.4980    73.6280 N.pl3        1 NAD1510   0.0000
    19 N1A        -13.3790    74.7350    73.7220 N.ar         1 NAD1510   0.0000
    20 C2A        -12.0800    74.9000    73.4350 C.ar         1 NAD1510   0.0000
    21 N3A        -11.6350    75.9720    72.7600 N.ar         1 NAD1510   0.0000
    22 C4A        -12.5040    76.9280    72.3450 C.ar         1 NAD1510   0.0000
    23 O3         -10.8470    84.5460    72.5230 O.3          1 NAD1510   0.0000
    24 PN         -10.5690    85.5070    71.2610 P.3          1 NAD1510   0.0000
    25 O1N         -9.8590    84.7280    70.1720 O.co2        1 NAD1510   0.0000
    26 O2N        -11.8280    86.2800    70.9330 O.co2        1 NAD1510  -1.0000
    27 O5D         -9.5020    86.5370    71.9110 O.3          1 NAD1510   0.0000
    28 C5D         -9.8900    87.6510    72.7170 C.3          1 NAD1510   0.0000
    29 C4D         -9.8630    87.2800    74.1980 C.3          1 NAD1510   0.0000
    30 O4D         -8.6220    86.6530    74.5640 O.3          1 NAD1510   0.0000
    31 C3D        -10.0050    88.5210    75.0630 C.3          1 NAD1510   0.0000
    32 O3D        -10.9400    88.2490    76.1050 O.3          1 NAD1510   0.0000
    33 C2D         -8.6250    88.7310    75.6460 C.3          1 NAD1510   0.0000
    34 O2D         -8.6760    89.3480    76.9300 O.3          1 NAD1510   0.0000
    35 C1D         -8.0350    87.3260    75.6910 C.3          1 NAD1510   0.0000
    36 N1N         -6.5640    87.3740    75.6230 N.ar         1 NAD1510   1.0000
    37 C2N         -5.8490    87.1020    76.7310 C.ar         1 NAD1510   0.0000
    38 C3N         -4.4510    87.1490    76.7050 C.ar         1 NAD1510   0.0000
    39 C7N         -3.6450    86.8500    77.9360 C.2          1 NAD1510   0.0000
    40 O7N         -2.3640    86.5150    77.8070 O.2          1 NAD1510   0.0000
    41 N7N         -4.1630    86.9170    79.0800 N.am         1 NAD1510   0.0000
    42 C4N         -3.7940    87.4780    75.5150 C.ar         1 NAD1510   0.0000
    43 C5N         -4.5520    87.7570    74.3830 C.ar         1 NAD1510   0.0000
    44 C6N         -5.9430    87.6900    74.4650 C.ar         1 NAD1510   0.0000
    45 H5B1        -9.7053    81.8135    72.9670 H            1 NAD1510   0.0000
    46 H5B2        -9.1309    82.4071    71.5583 H            1 NAD1510   0.0000
    47 H4B         -8.6279    80.1063    71.6506 H            1 NAD1510   0.0000
    48 H3B         -9.9550    81.1114    69.5263 H            1 NAD1510   0.0000
    49 H5          -7.9272    79.9313    69.5590 H            1 NAD1510   0.0000
    50 H2B        -11.9268    80.0371    69.9932 H            1 NAD1510   0.0000
    51 H7         -12.1430    78.1160    68.7770 H            1 NAD1510   0.0000
    52 H1B        -10.4208    77.8168    71.0319 H            1 NAD1510   0.0000
    53 H8A        -13.7293    79.5224    71.0668 H            1 NAD1510   0.0000
    54 H6A1       -15.8968    74.6901    74.1347 H            1 NAD1510   0.0000
    55 H6A2       -16.2636    76.1839    73.3386 H            1 NAD1510   0.0000
    56 H2A        -11.4244    74.2056    73.7318 H            1 NAD1510   0.0000
    57 H5D1       -10.8163    87.9315    72.4655 H            1 NAD1510   0.0000
    58 H5D2        -9.2573    88.4086    72.5566 H            1 NAD1510   0.0000
    59 H4D        -10.6180    86.6543    74.3941 H            1 NAD1510   0.0000
    60 H3D        -10.2906    89.3097    74.5186 H            1 NAD1510   0.0000
    61 H17        -11.0418    89.0597    76.6815 H            1 NAD1510   0.0000
    62 H2D         -8.0846    89.2990    75.0253 H            1 NAD1510   0.0000
    63 H19         -9.1218    90.2399    76.8538 H            1 NAD1510   0.0000
    64 H1D         -8.3165    86.8716    76.5362 H            1 NAD1510   0.0000
    65 H2N         -6.3213    86.8643    77.5798 H            1 NAD1510   0.0000
    66 H7N1        -3.6132    86.7149    79.8905 H            1 NAD1510   0.0000
    67 H7N2        -5.1247    87.1724    79.1792 H            1 NAD1510   0.0000
    68 H4N         -2.7952    87.5121    75.4787 H            1 NAD1510   0.0000
    69 H5N         -4.1062    88.0023    73.5221 H            1 NAD1510   0.0000
    70 H6N         -6.4916    87.8796    73.6507 H            1 NAD1510   0.0000
@<TRIPOS>BOND
     1    1    2      ar
     2    1    3      ar
     3    1    4       1
     4    1   23       1
     5    4    5       1
     6    5    6       1
     7    6    7       1
     8    6    8       1
     9    7   12       1
    10    8    9       1
    11    8   10       1
    12   10   11       1
    13   10   12       1
    14   12   13       1
    15   13   14       1
    16   13   22       1
    17   14   15       2
    18   15   16       1
    19   16   17      ar
    20   16   22      ar
    21   17   18       1
    22   17   19      ar
    23   19   20      ar
    24   20   21      ar
    25   21   22      ar
    26   23   24       1
    27   24   25      ar
    28   24   26      ar
    29   24   27       1
    30   27   28       1
    31   28   29       1
    32   29   30       1
    33   29   31       1
    34   30   35       1
    35   31   32       1
    36   31   33       1
    37   33   34       1
    38   33   35       1
    39   35   36       1
    40   36   37      ar
    41   36   44      ar
    42   37   38      ar
    43   38   39       1
    44   38   42      ar
    45   39   40       2
    46   39   41      am
    47   42   43      ar
    48   43   44      ar
    49   44   70       1
    50    5   45       1
    51    5   46       1
    52    6   47       1
    53    8   48       1
    54    9   49       1
    55   10   50       1
    56   11   51       1
    57   12   52       1
    58   14   53       1
    59   18   54       1
    60   18   55       1
    61   20   56       1
    62   43   69       1
    63   28   57       1
    64   28   58       1
    65   29   59       1
    66   31   60       1
    67   32   61       1
    68   33   62       1
    69   34   63       1
    70   35   64       1
    71   37   65       1
    72   41   66       1
    73   41   67       1
    74   42   68       1
@<TRIPOS>SUBSTRUCTURE
     1 NAD1510     1 GROUP             4 E     NAD     0 **** NAD E1510
