@<TRIPOS>MOLECULE
./coach420/3e3s/ligand.pdb
 61 61 0 0 0
SMALL
GASTEIGER

@<TRIPOS>ATOM
      1  I3        21.0770   38.2940   37.8440 I     1001  I3C1001    -0.0409
      2  I2        25.0040   36.6910   33.5840 I     1001  I3C1001    -0.0409
      3  I1        22.2090   32.4450   36.7960 I     1001  I3C1001    -0.0421
      4  O8        21.3030   34.9920   39.2720 O.co2 1001  I3C1001    -0.2405
      5  O9        19.5990   34.9650   37.8610 O.co2 1001  I3C1001    -0.2405
      6  C10       24.3290   33.7560   34.8360 C.2   1001  I3C1001     0.3886
      7  N13       23.3760   38.5360   35.4410 N.pl3 1001  I3C1001    -0.1272
      8  C1        21.8310   35.4860   37.0790 C.ar  1001  I3C1001     0.0920
      9  C6        22.1050   36.8230   36.7600 C.ar  1001  I3C1001     0.0540
     10  C5        23.0190   37.2240   35.7890 C.ar  1001  I3C1001     0.1002
     11  C4        23.6840   36.1640   35.1200 C.ar  1001  I3C1001     0.0540
     12  C3        23.4710   34.8390   35.4470 C.ar  1001  I3C1001     0.0920
     13  C2        22.5270   34.4790   36.4100 C.ar  1001  I3C1001     0.0437
     14  C7        20.8120   35.1250   38.1250 C.2   1001  I3C1001     0.3886
     15  O11       23.7560   33.1580   33.9090 O.co2 1001  I3C1001    -0.2405
     16  O12       25.4830   33.5500   35.2820 O.co2 1001  I3C1001    -0.2405
     17  I2        29.1460   23.6030   33.7890 I     1003  I3C1003    -0.0409
     18  I1        32.9120   27.9230   31.8830 I     1003  I3C1003    -0.0421
     19  O8        35.3880   25.3940   31.1400 O.co2 1003  I3C1003    -0.2405
     20  O9        34.1650   25.8600   29.3510 O.co2 1003  I3C1003    -0.2405
     21  C10       30.2890   26.5030   33.3860 C.2   1003  I3C1003     0.3886
     22  N13       31.4120   21.8200   32.2890 N.pl3 1003  I3C1003    -0.1276
     23  C1        33.1400   24.9760   31.3520 C.ar  1003  I3C1003     0.0867
     24  C6        32.8310   23.6240   31.4710 C.ar  1003  I3C1003     0.0255
     25  C5        31.7080   23.1780   32.1680 C.ar  1003  I3C1003     0.0948
     26  C4        30.8880   24.1650   32.7660 C.ar  1003  I3C1003     0.0536
     27  C3        31.1980   25.5230   32.6910 C.ar  1003  I3C1003     0.0920
     28  C2        32.3320   25.9190   31.9900 C.ar  1003  I3C1003     0.0433
     29  C7        34.3030   25.4510   30.5260 C.2   1003  I3C1003     0.3882
     30  O11       29.4820   27.0470   32.6090 O.co2 1003  I3C1003    -0.2405
     31  O12       30.3460   26.7320   34.6150 O.co2 1003  I3C1003    -0.2405
     32  I2         0.7720   28.7630   54.6160 I     1004  I3C1004    -0.0409
     33  I1         1.7050   22.8790   53.4400 I     1004  I3C1004    -0.0421
     34  O8         4.9110   23.0840   54.1880 O.co2 1004  I3C1004    -0.2405
     35  O9         4.4550   22.9440   56.3600 O.co2 1004  I3C1004    -0.2405
     36  C10        0.3600   25.7810   53.2470 C.2   1004  I3C1004     0.3886
     37  N13        3.6460   28.2850   56.0260 N.pl3 1004  I3C1004    -0.1276
     38  C1         3.5390   24.7280   55.0280 C.ar  1004  I3C1004     0.0867
     39  C6         3.9510   25.9300   55.6060 C.ar  1004  I3C1004     0.0255
     40  C5         3.1880   27.0930   55.4670 C.ar  1004  I3C1004     0.0948
     41  C4         1.9740   27.0330   54.7310 C.ar  1004  I3C1004     0.0536
     42  C3         1.5830   25.8450   54.1250 C.ar  1004  I3C1004     0.0920
     43  C2         2.3560   24.6870   54.2890 C.ar  1004  I3C1004     0.0433
     44  C7         4.3620   23.4850   55.2350 C.2   1004  I3C1004     0.3882
     45  O11        0.6640   25.6760   52.0360 O.co2 1004  I3C1004    -0.2405
     46  O12       -0.8090   25.8240   53.6810 O.co2 1004  I3C1004    -0.2405
     47  I2        22.6450   28.9950   37.0080 I     1005  I3C1005    -0.0409
     48  I1        22.5470   25.5070   42.0220 I     1005  I3C1005    -0.0421
     49  O8        19.1730   25.2340   41.7570 O.co2 1005  I3C1005    -0.2405
     50  O9        19.7520   23.5530   40.4380 O.co2 1005  I3C1005    -0.2405
     51  C10       23.7110   27.6790   39.9080 C.2   1005  I3C1005     0.3886
     52  N13       19.8340   27.9850   36.9110 N.pl3 1005  I3C1005    -0.1276
     53  C1        20.4040   25.8200   39.9210 C.ar  1005  I3C1005     0.0867
     54  C6        19.7650   26.3360   38.7860 C.ar  1005  I3C1005     0.0255
     55  C5        20.3780   27.2970   38.0020 C.ar  1005  I3C1005     0.0948
     56  C4        21.7040   27.6910   38.3620 C.ar  1005  I3C1005     0.0536
     57  C3        22.3370   27.2120   39.4950 C.ar  1005  I3C1005     0.0920
     58  C2        21.6710   26.2690   40.2810 C.ar  1005  I3C1005     0.0433
     59  C7        19.7320   24.7610   40.7470 C.2   1005  I3C1005     0.3882
     60  O11       24.5820   26.7930   39.7670 O.co2 1005  I3C1005    -0.2405
     61  O12       23.9350   28.8290   40.3460 O.co2 1005  I3C1005    -0.2405
@<TRIPOS>BOND
     1     1     9    1
     2     2    11    1
     3     3    13    1
     4     4    14   ar
     5     5    14   ar
     6     6    15   ar
     7     6    16   ar
     8     6    12    1
     9     7    10    1
    10     8    13   ar
    11     8     9   ar
    12     8    14    1
    13     9    10   ar
    14    10    11   ar
    15    11    12   ar
    16    12    13   ar
    17    17    26    1
    18    18    28    1
    19    19    29   ar
    20    20    29   ar
    21    21    30   ar
    22    21    27    1
    23    21    31   ar
    24    22    25    1
    25    23    29    1
    26    23    24   ar
    27    23    28   ar
    28    24    25   ar
    29    25    26   ar
    30    26    27   ar
    31    27    28   ar
    32    32    41    1
    33    33    43    1
    34    34    44   ar
    35    35    44   ar
    36    36    45   ar
    37    36    46   ar
    38    36    42    1
    39    37    40    1
    40    38    43   ar
    41    38    44    1
    42    38    39   ar
    43    39    40   ar
    44    40    41   ar
    45    41    42   ar
    46    42    43   ar
    47    47    56    1
    48    48    58    1
    49    49    59   ar
    50    50    59   ar
    51    51    57    1
    52    51    60   ar
    53    51    61   ar
    54    52    55    1
    55    53    54   ar
    56    53    58   ar
    57    53    59    1
    58    54    55   ar
    59    55    56   ar
    60    56    57   ar
    61    57    58   ar
