@<TRIPOS>MOLECULE
3cyl_VIT_1_ligand
   81    82     1     0     0
SMALL
NO_CHARGES


@<TRIPOS>ATOM
     1 C1           1.5090    -7.4700     2.0350 C.3          1 VIT306   0.0000
     2 C2           9.7990     2.9900     6.8160 C.ar         1 VIT306   0.0000
     3 C3           8.3950     2.4190     6.4400 C.ar         1 VIT306   0.0000
     4 C4           7.9420     2.2160     5.0270 C.ar         1 VIT306   0.0000
     5 C5           8.8990     2.5710     3.9000 C.ar         1 VIT306   0.0000
     6 C6          10.3570     3.1560     4.2130 C.ar         1 VIT306   0.0000
     7 C7          10.7740     3.3570     5.6930 C.ar         1 VIT306   0.0000
     8 C8          10.2510     3.2020     8.3290 C.3          1 VIT306   0.0000
     9 O1           6.5520     1.6640     4.6940 O.3          1 VIT306   0.0000
    10 C9           5.5050     1.2690     5.7710 C.3          1 VIT306   0.0000
    11 C10          7.4090     2.0330     7.5510 C.3          1 VIT306   0.0000
    12 C11          5.9350     1.4400     7.2210 C.3          1 VIT306   0.0000
    13 C12          8.3790     2.3320     2.4660 C.3          1 VIT306   0.0000
    14 C13         11.4060     3.5480     3.1060 C.3          1 VIT306   0.0000
    15 O2          12.0430     3.8710     6.0080 O.3          1 VIT306   0.0000
    16 C14          4.3610     2.1130     6.0290 C.3          1 VIT306   0.0000
    17 C15          5.3260    -0.2470     5.7530 C.3          1 VIT306   0.0000
    18 C16          3.9360    -0.9500     5.8250 C.3          1 VIT306   0.0000
    19 C17          3.6680    -2.1920     4.8600 C.3          1 VIT306   0.0000
    20 C18          4.8370    -3.1030     4.2780 C.3          1 VIT306   0.0000
    21 C19          5.8080    -3.6440     5.2970 C.3          1 VIT306   0.0000
    22 C20          4.2170    -4.2420     3.3670 C.3          1 VIT306   0.0000
    23 C21          4.6200    -5.7360     3.5320 C.3          1 VIT306   0.0000
    24 C22          3.9440    -6.6430     2.5970 C.3          1 VIT306   0.0000
    25 C23          2.6930    -7.5480     2.9970 C.3          1 VIT306   0.0000
    26 C24          3.0450    -9.1000     3.1210 C.3          1 VIT306   0.0000
    27 C25          2.0010   -10.1540     3.4820 C.3          1 VIT306   0.0000
    28 C26          2.5370   -11.6060     3.8270 C.3          1 VIT306   0.0000
    29 C27          2.4520   -12.6810     2.6560 C.3          1 VIT306   0.0000
    30 C28          2.9830   -14.0330     3.1330 C.3          1 VIT306   0.0000
    31 C29          0.9940   -12.9630     2.1580 C.3          1 VIT306   0.0000
    32 H1           0.7746    -8.0651     2.3613 H            1 VIT306   0.0000
    33 H2           1.1785    -6.5273     1.9889 H            1 VIT306   0.0000
    34 H3           1.7988    -7.7665     1.1250 H            1 VIT306   0.0000
    35 H4          11.1787     3.5747     8.3506 H            1 VIT306   0.0000
    36 H5           9.6250     3.8398     8.7777 H            1 VIT306   0.0000
    37 H6          10.2330     2.3246     8.8083 H            1 VIT306   0.0000
    38 H7           7.2635     2.8587     8.0961 H            1 VIT306   0.0000
    39 H8           7.8706     1.3428     8.1082 H            1 VIT306   0.0000
    40 H9           5.8817     0.5377     7.6488 H            1 VIT306   0.0000
    41 H10          5.2718     2.0525     7.6511 H            1 VIT306   0.0000
    42 H11          9.0833     2.5971     1.8075 H            1 VIT306   0.0000
    43 H12          8.1600     1.3635     2.3480 H            1 VIT306   0.0000
    44 H13          7.5569     2.8806     2.3138 H            1 VIT306   0.0000
    45 H14         12.2393     3.8879     3.5419 H            1 VIT306   0.0000
    46 H15         11.6234     2.7437     2.5530 H            1 VIT306   0.0000
    47 H16         11.0215     4.2613     2.5201 H            1 VIT306   0.0000
    48 H17         12.3084     3.9967     6.9639 H            1 VIT306   0.0000
    49 H18          3.8001     1.7035     6.7485 H            1 VIT306   0.0000
    50 H19          4.6729     3.0165     6.3231 H            1 VIT306   0.0000
    51 H20          3.8182     2.2032     5.1940 H            1 VIT306   0.0000
    52 H21          5.8481    -0.5932     6.5325 H            1 VIT306   0.0000
    53 H22          5.7479    -0.5620     4.9028 H            1 VIT306   0.0000
    54 H23          3.2433    -0.2591     5.6182 H            1 VIT306   0.0000
    55 H24          3.8152    -1.2726     6.7638 H            1 VIT306   0.0000
    56 H25          3.1829    -1.8251     4.0662 H            1 VIT306   0.0000
    57 H26          3.0633    -2.8081     5.3647 H            1 VIT306   0.0000
    58 H27          5.3702    -2.5169     3.6679 H            1 VIT306   0.0000
    59 H28          6.4998    -4.1998     4.8360 H            1 VIT306   0.0000
    60 H29          6.2526    -2.8836     5.7703 H            1 VIT306   0.0000
    61 H30          5.3156    -4.2074     5.9604 H            1 VIT306   0.0000
    62 H31          4.4345    -3.9954     2.4226 H            1 VIT306   0.0000
    63 H32          3.2270    -4.2018     3.5025 H            1 VIT306   0.0000
    64 H33          4.3962    -6.0210     4.4640 H            1 VIT306   0.0000
    65 H34          5.6065    -5.8135     3.3876 H            1 VIT306   0.0000
    66 H35          4.6473    -7.2764     2.2741 H            1 VIT306   0.0000
    67 H36          3.6357    -6.0714     1.8366 H            1 VIT306   0.0000
    68 H37          2.3732    -7.2398     3.8929 H            1 VIT306   0.0000
    69 H38          3.7594    -9.1675     3.8174 H            1 VIT306   0.0000
    70 H39          3.4178    -9.3715     2.2337 H            1 VIT306   0.0000
    71 H40          1.3766   -10.2391     2.7056 H            1 VIT306   0.0000
    72 H41          1.4980    -9.8203     4.2793 H            1 VIT306   0.0000
    73 H42          2.0045   -11.9527     4.5991 H            1 VIT306   0.0000
    74 H43          3.4967   -11.5216     4.0951 H            1 VIT306   0.0000
    75 H44          3.0052   -12.3672     1.8844 H            1 VIT306   0.0000
    76 H45          2.9230   -14.6966     2.3873 H            1 VIT306   0.0000
    77 H46          3.9370   -13.9353     3.4163 H            1 VIT306   0.0000
    78 H47          2.4362   -14.3515     3.9074 H            1 VIT306   0.0000
    79 H48          1.0176   -13.6442     1.4263 H            1 VIT306   0.0000
    80 H49          0.4433   -13.3088     2.9177 H            1 VIT306   0.0000
    81 H50          0.5902   -12.1161     1.8121 H            1 VIT306   0.0000
@<TRIPOS>BOND
     1    1   25       1
     2    2    3      ar
     3    2    7      ar
     4    2    8       1
     5    3    4      ar
     6    3   11       1
     7    4    5      ar
     8    4    9       1
     9    5    6      ar
    10    5   13       1
    11    6    7      ar
    12    6   14       1
    13    7   15       1
    14    9   10       1
    15   10   12       1
    16   10   16       1
    17   10   17       1
    18   11   12       1
    19   17   18       1
    20   18   19       1
    21   19   20       1
    22   20   21       1
    23   20   22       1
    24   22   23       1
    25   23   24       1
    26   24   25       1
    27   25   26       1
    28   26   27       1
    29   27   28       1
    30   28   29       1
    31   29   30       1
    32   29   31       1
    33    1   32       1
    34    1   33       1
    35    1   34       1
    36    8   35       1
    37    8   36       1
    38    8   37       1
    39   11   38       1
    40   11   39       1
    41   12   40       1
    42   12   41       1
    43   13   42       1
    44   13   43       1
    45   13   44       1
    46   14   45       1
    47   14   46       1
    48   14   47       1
    49   15   48       1
    50   16   49       1
    51   16   50       1
    52   16   51       1
    53   17   52       1
    54   17   53       1
    55   18   54       1
    56   18   55       1
    57   19   56       1
    58   19   57       1
    59   20   58       1
    60   21   59       1
    61   21   60       1
    62   21   61       1
    63   22   62       1
    64   22   63       1
    65   23   64       1
    66   23   65       1
    67   24   66       1
    68   24   67       1
    69   25   68       1
    70   26   69       1
    71   26   70       1
    72   27   71       1
    73   27   72       1
    74   28   73       1
    75   28   74       1
    76   29   75       1
    77   30   76       1
    78   30   77       1
    79   30   78       1
    80   31   79       1
    81   31   80       1
    82   31   81       1
@<TRIPOS>SUBSTRUCTURE
     1 VIT306      1 GROUP             4 A     VIT     0 **** VIT A 306
