@<TRIPOS>MOLECULE
4d9f_DCS_5_ligand
   37    38     1     0     0
SMALL
NO_CHARGES


@<TRIPOS>ATOM
     1 N1          21.6600    72.3930    12.8500 N.ar         1 DCS401   0.0000
     2 C2          20.6790    72.8800    12.0550 C.ar         1 DCS401   0.0000
     3 C2A         19.3340    73.1980    12.6470 C.3          1 DCS401   0.0000
     4 C3          20.9320    73.0890    10.6070 C.ar         1 DCS401   0.0000
     5 O3          19.9560    73.5750     9.7900 O.3          1 DCS401   0.0000
     6 C4          22.2800    72.7500    10.0770 C.ar         1 DCS401   0.0000
     7 C4A         22.5460    72.9680     8.5960 C.3          1 DCS401   0.0000
     8 C5          23.2730    72.2270    11.0720 C.ar         1 DCS401   0.0000
     9 C6          22.8880    72.0810    12.4040 C.ar         1 DCS401   0.0000
    10 C5A         24.6860    71.8310    10.7130 C.3          1 DCS401   0.0000
    11 O4P         25.5220    72.9830    10.7140 O.3          1 DCS401   0.0000
    12 P           26.8020    73.0630     9.7400 P.3          1 DCS401   0.0000
    13 O1P         26.2960    72.5980     8.3930 O.co2        1 DCS401   0.0000
    14 O2P         27.1780    74.5220     9.7740 O.co2        1 DCS401  -1.0000
    15 O3P         27.8090    72.1430    10.3960 O.co2        1 DCS401  -1.0000
    16 N           23.4490    72.0130     7.9750 N.4          1 DCS401   1.0000
    17 CA          22.9790    71.1850     6.8790 C.3          1 DCS401   0.0000
    18 C           22.9930    71.8470     5.5350 C.2          1 DCS401   0.0000
    19 O           22.4260    72.9020     5.2880 O.2          1 DCS401   0.0000
    20 ND          23.6850    71.1090     4.6750 N.am         1 DCS401   0.0000
    21 OG          24.4180    70.1600     5.3440 O.3          1 DCS401   0.0000
    22 CB          23.8590    69.9520     6.6780 C.3          1 DCS401   0.0000
    23 H2A1        18.7284    73.5454    11.9311 H            1 DCS401   0.0000
    24 H2A2        18.9399    72.3689    13.0436 H            1 DCS401   0.0000
    25 H2A3        19.4391    73.8912    13.3601 H            1 DCS401   0.0000
    26 H4          20.1405    73.7108     8.8166 H            1 DCS401   0.0000
    27 H4A1        22.9389    73.8808     8.4847 H            1 DCS401   0.0000
    28 H4A2        21.6702    72.9212     8.1156 H            1 DCS401   0.0000
    29 H7          23.5571    71.7276    13.0577 H            1 DCS401   0.0000
    30 H5A1        24.6938    71.4154     9.8035 H            1 DCS401   0.0000
    31 H5A2        25.0271    71.1722    11.3835 H            1 DCS401   0.0000
    32 H10         23.7552    71.3921     8.6966 H            1 DCS401   0.0000
    33 HA          22.0464    70.8850     7.0798 H            1 DCS401   0.0000
    34 HB1         23.3157    69.1132     6.7131 H            1 DCS401   0.0000
    35 HB2         24.5817    69.9101     7.3679 H            1 DCS401   0.0000
    36 H14         24.2297    72.5342     7.6303 H            1 DCS401   0.0000
    37 HD          23.6739    71.2274     3.6821 H            1 DCS401   0.0000
@<TRIPOS>BOND
     1    1    2      ar
     2    1    9      ar
     3    2    3       1
     4    2    4      ar
     5    4    5       1
     6    4    6      ar
     7    6    7       1
     8    6    8      ar
     9    7   16       1
    10    8    9      ar
    11    8   10       1
    12   10   11       1
    13   11   12       1
    14   12   13      ar
    15   12   14      ar
    16   12   15      ar
    17   16   17       1
    18   17   18       1
    19   17   22       1
    20   18   19       2
    21   18   20      am
    22   20   21       1
    23   21   22       1
    24    3   23       1
    25    3   24       1
    26    3   25       1
    27    5   26       1
    28    7   27       1
    29    7   28       1
    30    9   29       1
    31   10   30       1
    32   10   31       1
    33   22   35       1
    34   22   34       1
    35   16   32       1
    36   17   33       1
    37   16   36       1
    38   20   37       1
@<TRIPOS>SUBSTRUCTURE
     1 DCS401      1 GROUP             4 C     DCS     0 **** DCS C 401
