@<TRIPOS>MOLECULE
2dkn_NAI_1_ligand
   71    75     1     0     0
SMALL
NO_CHARGES


@<TRIPOS>ATOM
     1 PA          17.9240    -4.9790    -1.1770 P.3          1 NAI4000   0.0000
     2 O1A         18.1010    -5.3800    -2.5840 O.co2        1 NAI4000   0.0000
     3 O2A         18.8720    -5.5300    -0.1810 O.co2        1 NAI4000  -1.0000
     4 O5B         16.4420    -5.3500    -0.6950 O.3          1 NAI4000   0.0000
     5 C5B         15.3350    -5.1050    -1.5130 C.3          1 NAI4000   0.0000
     6 C4B         14.4170    -6.3150    -1.4050 C.3          1 NAI4000   0.0000
     7 O4B         13.3190    -6.0170    -2.2470 O.3          1 NAI4000   0.0000
     8 C3B         15.0650    -7.6040    -1.9060 C.3          1 NAI4000   0.0000
     9 O3B         14.8500    -8.6740    -1.0060 O.3          1 NAI4000   0.0000
    10 C2B         14.2860    -7.8580    -3.1840 C.3          1 NAI4000   0.0000
    11 O2B         14.1690    -9.2200    -3.5340 O.3          1 NAI4000   0.0000
    12 C1B         12.9380    -7.1870    -2.9020 C.3          1 NAI4000   0.0000
    13 N9A         12.3150    -6.9690    -4.2150 N.pl3        1 NAI4000   0.0000
    14 C8A         12.8440    -6.2990    -5.3000 C.2          1 NAI4000   0.0000
    15 N7A         11.9650    -6.4260    -6.3260 N.2          1 NAI4000   0.0000
    16 C5A         10.9060    -7.1840    -5.9160 C.ar         1 NAI4000   0.0000
    17 C6A          9.7410    -7.6430    -6.5430 C.ar         1 NAI4000   0.0000
    18 N6A          9.5230    -7.5040    -7.8680 N.pl3        1 NAI4000   0.0000
    19 N1A          8.8530    -8.4080    -5.8120 N.ar         1 NAI4000   0.0000
    20 C2A          9.0990    -8.7280    -4.4950 C.ar         1 NAI4000   0.0000
    21 N3A         10.2440    -8.2830    -3.8730 N.ar         1 NAI4000   0.0000
    22 C4A         11.1350    -7.5320    -4.5850 C.ar         1 NAI4000   0.0000
    23 O3          17.9360    -3.3760    -1.2170 O.3          1 NAI4000   0.0000
    24 PN          17.7020    -2.3410    -0.0040 P.3          1 NAI4000   0.0000
    25 O1N         17.3320    -3.0150     1.2520 O.co2        1 NAI4000   0.0000
    26 O2N         18.8800    -1.4550     0.0050 O.co2        1 NAI4000  -1.0000
    27 O5D         16.4490    -1.5290    -0.5900 O.3          1 NAI4000   0.0000
    28 C5D         15.2420    -1.4030     0.1480 C.3          1 NAI4000   0.0000
    29 C4D         14.5750    -0.1200    -0.3320 C.3          1 NAI4000   0.0000
    30 O4D         15.4220     0.9690     0.0180 O.3          1 NAI4000   0.0000
    31 C3D         14.3970    -0.0560    -1.8470 C.3          1 NAI4000   0.0000
    32 O3D         13.1340     0.5440    -2.1070 O.3          1 NAI4000   0.0000
    33 C2D         15.4770     0.9330    -2.2810 C.3          1 NAI4000   0.0000
    34 O2D         15.0900     1.6410    -3.4260 O.3          1 NAI4000   0.0000
    35 C1D         15.5440     1.8570    -1.0730 C.3          1 NAI4000   0.0000
    36 N1N         16.8150     2.6270    -0.9920 N.pl3        1 NAI4000   0.0000
    37 C2N         18.0050     1.9660    -0.8690 C.2          1 NAI4000   0.0000
    38 C3N         19.1850     2.6880    -0.7860 C.2          1 NAI4000   0.0000
    39 C7N         20.4950     1.9670    -0.5900 C.2          1 NAI4000   0.0000
    40 O7N         21.6310     2.7560    -0.6690 O.2          1 NAI4000   0.0000
    41 N7N         20.5470     0.6440    -0.3430 N.am         1 NAI4000   0.0000
    42 C4N         19.1600     4.0960    -0.8190 C.3          1 NAI4000   0.0000
    43 C5N         17.9180     4.7600    -0.9060 C.2          1 NAI4000   0.0000
    44 C6N         16.7590     4.0020    -0.9960 C.2          1 NAI4000   0.0000
    45 H5B1        15.6299    -4.9825    -2.4606 H            1 NAI4000   0.0000
    46 H5B2        14.8561    -4.2833    -1.2040 H            1 NAI4000   0.0000
    47 H4B         14.1067    -6.4293    -0.4612 H            1 NAI4000   0.0000
    48 H3B         16.0389    -7.4741    -2.0922 H            1 NAI4000   0.0000
    49 H5          13.8678    -8.8317    -0.9041 H            1 NAI4000   0.0000
    50 H2B         14.7346    -7.3722    -3.9342 H            1 NAI4000   0.0000
    51 H7          13.6980    -9.7129    -2.8024 H            1 NAI4000   0.0000
    52 H1B         12.3627    -7.7594    -2.3177 H            1 NAI4000   0.0000
    53 H8A         13.7157    -5.8095    -5.3252 H            1 NAI4000   0.0000
    54 H6A1         8.6760    -7.8470    -8.2741 H            1 NAI4000   0.0000
    55 H6A2        10.2086    -7.0580    -8.4434 H            1 NAI4000   0.0000
    56 H2A          8.4425    -9.2865    -3.9879 H            1 NAI4000   0.0000
    57 H5D1        15.4396    -1.3447     1.1265 H            1 NAI4000   0.0000
    58 H5D2        14.6471    -2.1878    -0.0257 H            1 NAI4000   0.0000
    59 H4D         13.6874    -0.0138     0.1162 H            1 NAI4000   0.0000
    60 H3D         14.4957    -0.9499    -2.2842 H            1 NAI4000   0.0000
    61 H17         12.5044     0.3328    -1.3594 H            1 NAI4000   0.0000
    62 H2D         16.3507     0.4685    -2.4254 H            1 NAI4000   0.0000
    63 H19         15.3883     1.1449    -4.2414 H            1 NAI4000   0.0000
    64 H1D         14.7672     2.4866    -1.0852 H            1 NAI4000   0.0000
    65 H2N         18.0241     0.9666    -0.8391 H            1 NAI4000   0.0000
    66 H7N1        21.4307     0.1932    -0.2174 H            1 NAI4000   0.0000
    67 H7N2        19.7019     0.1125    -0.2853 H            1 NAI4000   0.0000
    68 H4N1        19.6991     4.3794    -1.6121 H            1 NAI4000   0.0000
    69 H4N2        19.6045     4.4159     0.0177 H            1 NAI4000   0.0000
    70 H5N         17.8737     5.7590    -0.9029 H            1 NAI4000   0.0000
    71 H6N         15.8729     4.4603    -1.0646 H            1 NAI4000   0.0000
@<TRIPOS>BOND
     1    1    2      ar
     2    1    3      ar
     3    1    4       1
     4    1   23       1
     5    4    5       1
     6    5    6       1
     7    6    7       1
     8    6    8       1
     9    7   12       1
    10    8    9       1
    11    8   10       1
    12   10   11       1
    13   10   12       1
    14   12   13       1
    15   13   14       1
    16   13   22       1
    17   14   15       2
    18   15   16       1
    19   16   17      ar
    20   16   22      ar
    21   17   18       1
    22   17   19      ar
    23   19   20      ar
    24   20   21      ar
    25   21   22      ar
    26   23   24       1
    27   24   25      ar
    28   24   26      ar
    29   24   27       1
    30   27   28       1
    31   28   29       1
    32   29   30       1
    33   29   31       1
    34   30   35       1
    35   31   32       1
    36   31   33       1
    37   33   34       1
    38   33   35       1
    39   35   36       1
    40   36   37       1
    41   36   44       1
    42   37   38       2
    43   38   39       1
    44   38   42       1
    45   39   40       2
    46   39   41      am
    47   42   43       1
    48   43   44       2
    49   44   71       1
    50    5   45       1
    51    5   46       1
    52    6   47       1
    53    8   48       1
    54    9   49       1
    55   10   50       1
    56   11   51       1
    57   12   52       1
    58   14   53       1
    59   18   54       1
    60   18   55       1
    61   20   56       1
    62   43   70       1
    63   28   57       1
    64   28   58       1
    65   29   59       1
    66   31   60       1
    67   32   61       1
    68   33   62       1
    69   34   63       1
    70   35   64       1
    71   37   65       1
    72   41   66       1
    73   41   67       1
    74   42   68       1
    75   42   69       1
@<TRIPOS>SUBSTRUCTURE
     1 NAI4000     1 GROUP             4 A     NAI     0 **** NAI A4000
