@<TRIPOS>MOLECULE
3v8s_0HD_4_ligand
   37    39     1     0     0
SMALL
NO_CHARGES


@<TRIPOS>ATOM
     1 C10        -18.8850   -42.0350   -15.2850 C.ar         1 0HD501   0.0000
     2 N12        -17.0100   -41.9420   -20.8770 N.am         1 0HD501   0.0000
     3 C13        -17.1860   -42.7170   -22.0650 C.ar         1 0HD501   0.0000
     4 C15        -16.4290   -44.3750   -23.7000 C.ar         1 0HD501   0.0000
     5 C20        -18.5730   -43.2460   -23.9950 C.ar         1 0HD501   0.0000
     6 C21        -18.3630   -42.5200   -22.8160 C.ar         1 0HD501   0.0000
     7 O01        -15.2600   -43.1330   -19.8490 O.2          1 0HD501   0.0000
     8 C02        -16.0460   -42.1950   -19.8480 C.2          1 0HD501   0.0000
     9 N03        -15.9970   -41.3140   -18.7430 N.am         1 0HD501   0.0000
    10 C04        -15.0320   -41.5850   -17.7280 C.3          1 0HD501   0.0000
    11 C05        -15.3860   -41.1650   -16.3550 C.3          1 0HD501   0.0000
    12 C06        -16.8290   -41.0390   -16.0290 C.ar         1 0HD501   0.0000
    13 C07        -17.4570   -39.8080   -16.1500 C.ar         1 0HD501   0.0000
    14 C08        -18.8040   -39.6870   -15.8350 C.ar         1 0HD501   0.0000
    15 C09        -19.5160   -40.8010   -15.4000 C.ar         1 0HD501   0.0000
    16 C11        -17.5400   -42.1520   -15.6040 C.ar         1 0HD501   0.0000
    17 C14        -16.2210   -43.6390   -22.5130 C.ar         1 0HD501   0.0000
    18 C16        -17.6050   -44.1760   -24.4490 C.ar         1 0HD501   0.0000
    19 N17        -17.5360   -45.0150   -25.5340 N.pl3        1 0HD501   0.0000
    20 N18        -16.4050   -45.7080   -25.5140 N.2          1 0HD501   0.0000
    21 C19        -15.6800   -45.3870   -24.4490 C.2          1 0HD501   0.0000
    22 H1         -19.3986   -42.8345   -14.9737 H            1 0HD501   0.0000
    23 H2         -17.6129   -41.1538   -20.7533 H            1 0HD501   0.0000
    24 H3         -19.4124   -43.1071   -24.5205 H            1 0HD501   0.0000
    25 H4         -19.0486   -41.8611   -22.5064 H            1 0HD501   0.0000
    26 H5         -16.6152   -40.5309   -18.6757 H            1 0HD501   0.0000
    27 H6         -14.1852   -41.1168   -17.9805 H            1 0HD501   0.0000
    28 H7         -14.8752   -42.5725   -17.7132 H            1 0HD501   0.0000
    29 H8         -14.9637   -40.2726   -16.1962 H            1 0HD501   0.0000
    30 H9         -14.9939   -41.8360   -15.7257 H            1 0HD501   0.0000
    31 H10        -16.9414   -39.0104   -16.4630 H            1 0HD501   0.0000
    32 H11        -19.2613   -38.8018   -15.9205 H            1 0HD501   0.0000
    33 H12        -20.4851   -40.7137   -15.1692 H            1 0HD501   0.0000
    34 H13        -17.0831   -43.0382   -15.5277 H            1 0HD501   0.0000
    35 H14        -15.3816   -43.7737   -21.9864 H            1 0HD501   0.0000
    36 H15        -18.2397   -45.0927   -26.2402 H            1 0HD501   0.0000
    37 H16        -14.7877   -45.7659   -24.2036 H            1 0HD501   0.0000
@<TRIPOS>BOND
     1    1   15      ar
     2    1   16      ar
     3    2    3       1
     4    2    8      am
     5    3    6      ar
     6    3   17      ar
     7    4   17      ar
     8    4   18      ar
     9    4   21       1
    10    5    6      ar
    11    5   18      ar
    12    7    8       2
    13    8    9      am
    14    9   10       1
    15   10   11       1
    16   11   12       1
    17   12   13      ar
    18   12   16      ar
    19   13   14      ar
    20   14   15      ar
    21   18   19       1
    22   19   20       1
    23   20   21       2
    24    1   22       1
    25    2   23       1
    26    5   24       1
    27    6   25       1
    28    9   26       1
    29   10   27       1
    30   10   28       1
    31   11   29       1
    32   11   30       1
    33   13   31       1
    34   14   32       1
    35   15   33       1
    36   16   34       1
    37   17   35       1
    38   19   36       1
    39   21   37       1
@<TRIPOS>SUBSTRUCTURE
     1 0HD501      1 GROUP             4 D     0HD     0 **** 0HD D 501
