@<TRIPOS>MOLECULE
2j4q_TTP_2_ligand
   42    43     1     0     0
SMALL
NO_CHARGES


@<TRIPOS>ATOM
     1 PA          17.6850   -18.9790    62.1450 P.3          1 TTP194   0.0000
     2 O1A         16.9230   -19.5300    61.0160 O.co2        1 TTP194   0.0000
     3 O2A         19.0940   -19.4170    62.3540 O.co2        1 TTP194  -1.0000
     4 O3A         16.8370   -19.1780    63.5410 O.3          1 TTP194   0.0000
     5 PB          15.7330   -20.3360    63.8540 P.3          1 TTP194   0.0000
     6 O1B         14.4160   -19.8710    63.3460 O.co2        1 TTP194   0.0000
     7 O2B         15.8150   -20.7720    65.2600 O.co2        1 TTP194  -1.0000
     8 O3B         16.3130   -21.6500    63.0770 O.3          1 TTP194   0.0000
     9 PG          16.2570   -22.1170    61.5060 P.3          1 TTP194   0.0000
    10 O1G         17.6390   -21.9820    60.9700 O.co2        1 TTP194   0.0000
    11 O2G         15.2560   -21.3130    60.7420 O.co2        1 TTP194  -1.0000
    12 O3G         15.8560   -23.5490    61.4670 O.co2        1 TTP194  -1.0000
    13 O5'         17.6550   -17.3800    61.8380 O.3          1 TTP194   0.0000
    14 C5'         16.4200   -17.0990    61.2240 C.3          1 TTP194   0.0000
    15 C4'         16.1570   -15.7860    60.9130 C.3          1 TTP194   0.0000
    16 O4'         16.2380   -14.9790    62.0760 O.3          1 TTP194   0.0000
    17 C3'         17.1310   -15.3050    60.0320 C.3          1 TTP194   0.0000
    18 O3'         16.8210   -15.5680    58.6770 O.3          1 TTP194   0.0000
    19 C2'         17.2470   -13.9360    60.3380 C.3          1 TTP194   0.0000
    20 C1'         16.9820   -13.8160    61.7150 C.3          1 TTP194   0.0000
    21 N1          18.1150   -13.7060    62.4900 N.pl3        1 TTP194   0.0000
    22 C2          18.0750   -12.9140    63.6280 C.2          1 TTP194   0.0000
    23 O2          17.0400   -12.3320    63.9400 O.2          1 TTP194   0.0000
    24 N3          19.1820   -12.7900    64.4450 N.pl3        1 TTP194   0.0000
    25 C4          20.3530   -13.4390    64.1270 C.2          1 TTP194   0.0000
    26 O4          21.3270   -13.3110    64.8580 O.2          1 TTP194   0.0000
    27 C5          20.4290   -14.2300    62.9990 C.2          1 TTP194   0.0000
    28 C5M         21.7040   -14.9350    62.6340 C.3          1 TTP194   0.0000
    29 C6          19.3010   -14.3640    62.1920 C.2          1 TTP194   0.0000
    30 H5'1        15.6988   -17.4120    61.8419 H            1 TTP194   0.0000
    31 H5'2        16.3808   -17.6232    60.3733 H            1 TTP194   0.0000
    32 H4'         15.2497   -15.7051    60.5005 H            1 TTP194   0.0000
    33 H3'         17.9995   -15.7509    60.2487 H            1 TTP194   0.0000
    34 H5          16.7440   -16.5553    58.5382 H            1 TTP194   0.0000
    35 H2'1        16.5836   -13.4057    59.8101 H            1 TTP194   0.0000
    36 H2'2        18.1709   -13.6124    60.1336 H            1 TTP194   0.0000
    37 H1'         16.4105   -13.0090    61.8638 H            1 TTP194   0.0000
    38 H9          19.1322   -12.2270    65.2699 H            1 TTP194   0.0000
    39 H5M1        21.5673   -15.4562    61.7916 H            1 TTP194   0.0000
    40 H5M2        22.4295   -14.2610    62.4949 H            1 TTP194   0.0000
    41 H5M3        21.9641   -15.5571    63.3725 H            1 TTP194   0.0000
    42 H13         19.3465   -14.9467    61.3806 H            1 TTP194   0.0000
@<TRIPOS>BOND
     1    1    2      ar
     2    1    3      ar
     3    1    4       1
     4    1   13       1
     5    4    5       1
     6    5    6      ar
     7    5    7      ar
     8    5    8       1
     9    8    9       1
    10    9   10      ar
    11    9   11      ar
    12    9   12      ar
    13   13   14       1
    14   14   15       1
    15   15   16       1
    16   15   17       1
    17   16   20       1
    18   17   18       1
    19   17   19       1
    20   19   20       1
    21   20   21       1
    22   21   22       1
    23   21   29       1
    24   22   23       2
    25   22   24       1
    26   24   25       1
    27   25   26       2
    28   25   27       1
    29   27   28       1
    30   27   29       2
    31   29   42       1
    32   28   41       1
    33   28   40       1
    34   28   39       1
    35   14   30       1
    36   14   31       1
    37   15   32       1
    38   17   33       1
    39   18   34       1
    40   19   35       1
    41   19   36       1
    42   20   37       1
    43   24   38       1
@<TRIPOS>SUBSTRUCTURE
     1 TTP194      1 GROUP             4 B     TTP     0 **** TTP B 194
