@<TRIPOS>MOLECULE
3uon_QNB_1_ligand
   49    52     1     0     0
SMALL
USER_CHARGES


@<TRIPOS>ATOM
     1 C1           6.1590    -0.1640    -3.3750 C.3          1 QNB1162   0.0000
     2 C2           6.9820    -1.0600    -2.4940 C.ar         1 QNB1162   0.0000
     3 C3           8.0540    -1.7730    -3.0170 C.ar         1 QNB1162   0.0000
     4 C4           8.8030    -2.6060    -2.1900 C.ar         1 QNB1162   0.0000
     5 C5           8.4750    -2.7350    -0.8440 C.ar         1 QNB1162   0.0000
     6 C6           7.3980    -2.0280    -0.3240 C.ar         1 QNB1162   0.0000
     7 C7           6.6500    -1.1950    -1.1500 C.ar         1 QNB1162   0.0000
     8 C8           5.9260    -0.8130    -4.7100 C.ar         1 QNB1162   0.0000
     9 C9           5.4850    -2.1320    -4.7690 C.ar         1 QNB1162   0.0000
    10 C10          5.2590    -2.7390    -5.9990 C.ar         1 QNB1162   0.0000
    11 C11          5.4630    -2.0260    -7.1760 C.ar         1 QNB1162   0.0000
    12 C12          5.8940    -0.7060    -7.1220 C.ar         1 QNB1162   0.0000
    13 C13          6.1200    -0.1020    -5.8910 C.ar         1 QNB1162   0.0000
    14 C14          6.8280     1.1860    -3.5140 C.2          1 QNB1162   0.0000
    15 O15          4.8870     0.0280    -2.7460 O.3          1 QNB1162   0.0000
    16 O16          6.4660     2.1280    -2.8270 O.2          1 QNB1162   0.0000
    17 O17          7.9050     1.4020    -4.4680 O.3          1 QNB1162   0.0000
    18 C18          8.7230     2.5190    -4.1280 C.3          1 QNB1162   0.0000
    19 C19          9.7930     2.0930    -3.1290 C.3          1 QNB1162   0.0000
    20 N20         11.1200     2.4280    -3.6840 N.4          1 QNB1162   1.0000
    21 C21         11.4120     1.7020    -4.9380 C.3          1 QNB1162   0.0000
    22 C22         10.2910     1.9380    -5.9390 C.3          1 QNB1162   0.0000
    23 C23          9.4010     3.0340    -5.3870 C.3          1 QNB1162   0.0000
    24 C24         10.2910     4.2290    -5.0730 C.3          1 QNB1162   0.0000
    25 C25         11.1920     3.8860    -3.8910 C.3          1 QNB1162   0.0000
    26 H1           8.2871    -1.6880    -3.9857 H            1 QNB1162   0.0000
    27 H2           9.5792    -3.1132    -2.5647 H            1 QNB1162   0.0000
    28 H3           9.0132    -3.3352    -0.2523 H            1 QNB1162   0.0000
    29 H4           7.1606    -2.1178     0.6433 H            1 QNB1162   0.0000
    30 H5           5.8710    -0.6916    -0.7762 H            1 QNB1162   0.0000
    31 H6           5.3303    -2.6443    -3.9242 H            1 QNB1162   0.0000
    32 H7           4.9495    -3.6891    -6.0378 H            1 QNB1162   0.0000
    33 H8           5.2996    -2.4631    -8.0604 H            1 QNB1162   0.0000
    34 H9           6.0412    -0.1919    -7.9670 H            1 QNB1162   0.0000
    35 H10          6.4241     0.8499    -5.8533 H            1 QNB1162   0.0000
    36 H11          4.3199     0.6229    -3.3156 H            1 QNB1162   0.0000
    37 H12          8.1582     3.2416    -3.7295 H            1 QNB1162   0.0000
    38 H13          9.7332     1.1072    -2.9719 H            1 QNB1162   0.0000
    39 H14          9.6579     2.5771    -2.2645 H            1 QNB1162   0.0000
    40 H15         11.4860     0.7234    -4.7462 H            1 QNB1162   0.0000
    41 H16         12.2746     2.0328    -5.3206 H            1 QNB1162   0.0000
    42 H17          9.7613     1.0986    -6.0609 H            1 QNB1162   0.0000
    43 H18         10.6740     2.2212    -6.8183 H            1 QNB1162   0.0000
    44 H19          8.7126     3.2896    -6.0658 H            1 QNB1162   0.0000
    45 H20          9.7221     5.0183    -4.8420 H            1 QNB1162   0.0000
    46 H21         10.8537     4.4458    -5.8707 H            1 QNB1162   0.0000
    47 H22         12.1339     4.1560    -4.0906 H            1 QNB1162   0.0000
    48 H23         10.8752     4.3629    -3.0711 H            1 QNB1162   0.0000
    49 H24         11.8129     2.1747    -3.0089 H            1 QNB1162   0.0000
@<TRIPOS>BOND
     1    1    2       1
     2    1    8       1
     3    1   14       1
     4    1   15       1
     5    2    3      ar
     6    2    7      ar
     7    3    4      ar
     8    4    5      ar
     9    5    6      ar
    10    6    7      ar
    11    8    9      ar
    12    8   13      ar
    13    9   10      ar
    14   10   11      ar
    15   11   12      ar
    16   12   13      ar
    17   14   16       2
    18   14   17       1
    19   17   18       1
    20   18   19       1
    21   18   23       1
    22   19   20       1
    23   20   21       1
    24   20   25       1
    25   21   22       1
    26   22   23       1
    27   23   24       1
    28   24   25       1
    29    3   26       1
    30    4   27       1
    31    5   28       1
    32    6   29       1
    33    7   30       1
    34    9   31       1
    35   10   32       1
    36   11   33       1
    37   12   34       1
    38   13   35       1
    39   15   36       1
    40   18   37       1
    41   19   38       1
    42   19   39       1
    43   21   40       1
    44   21   41       1
    45   22   42       1
    46   22   43       1
    47   23   44       1
    48   24   45       1
    49   24   46       1
    50   25   47       1
    51   25   48       1
    52   20   49       1
@<TRIPOS>SUBSTRUCTURE
     1 QNB1162     1 GROUP             4 A     QNB     0 **** QNB A1162
