@<TRIPOS>MOLECULE
2o7p_NAP_1_ligand
   73    77     1     0     0
SMALL
NO_CHARGES


@<TRIPOS>ATOM
     1 PA          77.6080   -64.8220    41.8090 P.3          1 NAP402   0.0000
     2 O1A         76.9230   -63.9730    40.7880 O.co2        1 NAP402   0.0000
     3 O2A         76.8700   -66.0840    42.1300 O.co2        1 NAP402  -1.0000
     4 O5B         79.1170   -65.0750    41.3610 O.3          1 NAP402   0.0000
     5 C5B         80.0550   -64.0490    41.3800 C.3          1 NAP402   0.0000
     6 C4B         81.3620   -64.7340    41.0220 C.3          1 NAP402   0.0000
     7 O4B         81.4100   -64.9510    39.6220 O.3          1 NAP402   0.0000
     8 C3B         82.5830   -63.8960    41.3620 C.3          1 NAP402   0.0000
     9 O3B         83.0810   -64.1090    42.6740 O.3          1 NAP402   0.0000
    10 C2B         83.5270   -64.4060    40.3090 C.3          1 NAP402   0.0000
    11 O2B         83.9740   -65.6420    40.7760 O.3          1 NAP402   0.0000
    12 C1B         82.6870   -64.6950    39.1000 C.3          1 NAP402   0.0000
    13 N9A         82.6660   -63.4640    38.2920 N.pl3        1 NAP402   0.0000
    14 C8A         81.9790   -62.3270    38.5960 C.2          1 NAP402   0.0000
    15 N7A         82.1960   -61.4010    37.6490 N.2          1 NAP402   0.0000
    16 C5A         83.0130   -61.9210    36.7290 C.ar         1 NAP402   0.0000
    17 C6A         83.5350   -61.3780    35.5710 C.ar         1 NAP402   0.0000
    18 N6A         83.2220   -60.1340    35.2310 N.pl3        1 NAP402   0.0000
    19 N1A         84.3740   -62.1320    34.7810 N.ar         1 NAP402   0.0000
    20 C2A         84.6780   -63.4250    35.1780 C.ar         1 NAP402   0.0000
    21 N3A         84.1580   -63.9620    36.3420 N.ar         1 NAP402   0.0000
    22 C4A         83.3270   -63.2140    37.1140 C.ar         1 NAP402   0.0000
    23 O3          77.8310   -64.0220    43.1650 O.3          1 NAP402   0.0000
    24 PN          76.8420   -62.9680    43.8560 P.3          1 NAP402   0.0000
    25 O1N         76.5500   -61.9010    42.8560 O.co2        1 NAP402   0.0000
    26 O2N         77.4120   -62.7030    45.1970 O.co2        1 NAP402  -1.0000
    27 O5D         75.4780   -63.7620    44.1140 O.3          1 NAP402   0.0000
    28 C5D         75.4940   -64.8930    44.9370 C.3          1 NAP402   0.0000
    29 C4D         74.0810   -65.0940    45.4500 C.3          1 NAP402   0.0000
    30 O4D         73.1860   -65.4470    44.4160 O.3          1 NAP402   0.0000
    31 C3D         74.0170   -66.2030    46.4760 C.3          1 NAP402   0.0000
    32 O3D         73.6340   -65.5820    47.6670 O.3          1 NAP402   0.0000
    33 C2D         72.9580   -67.1520    45.9720 C.3          1 NAP402   0.0000
    34 O2D         72.0590   -67.5780    46.9500 O.3          1 NAP402   0.0000
    35 C1D         72.2140   -66.3080    44.9680 C.3          1 NAP402   0.0000
    36 N1N         71.6020   -67.1970    43.9670 N.ar         1 NAP402   1.0000
    37 C2N         70.2380   -67.2140    43.7770 C.ar         1 NAP402   0.0000
    38 C3N         69.7010   -68.0800    42.8240 C.ar         1 NAP402   0.0000
    39 C7N         68.3130   -67.8780    42.2670 C.2          1 NAP402   0.0000
    40 O7N         67.3240   -67.2910    43.0840 O.2          1 NAP402   0.0000
    41 N7N         68.0500   -68.2780    41.0100 N.am         1 NAP402   0.0000
    42 C4N         70.5520   -68.9160    42.1050 C.ar         1 NAP402   0.0000
    43 C5N         71.9180   -68.8990    42.3100 C.ar         1 NAP402   0.0000
    44 C6N         72.4320   -68.0260    43.2560 C.ar         1 NAP402   0.0000
    45 P2B         85.4350   -65.7280    41.4590 P.3          1 NAP402   0.0000
    46 O1X         85.7060   -64.4110    42.1810 O.co2        1 NAP402   0.0000
    47 O2X         85.3970   -66.9630    42.3510 O.co2        1 NAP402  -1.0000
    48 O3X         86.4870   -65.8220    40.3780 O.co2        1 NAP402  -1.0000
    49 H5B1        80.1089   -63.6343    42.2884 H            1 NAP402   0.0000
    50 H5B2        79.8263   -63.3466    40.7060 H            1 NAP402   0.0000
    51 H4B         81.4184   -65.6122    41.4970 H            1 NAP402   0.0000
    52 H3B         82.3905   -62.9256    41.2162 H            1 NAP402   0.0000
    53 H5          84.0245   -64.4366    42.6233 H            1 NAP402   0.0000
    54 H2B         84.2749   -63.7702    40.1183 H            1 NAP402   0.0000
    55 H1B         83.0389   -65.4739    38.5809 H            1 NAP402   0.0000
    56 H8A         81.4009   -62.2016    39.4023 H            1 NAP402   0.0000
    57 H6A1        83.5966   -59.7351    34.3940 H            1 NAP402   0.0000
    58 H6A2        82.6116   -59.5955    35.8118 H            1 NAP402   0.0000
    59 H2A         85.2858   -63.9811    34.6111 H            1 NAP402   0.0000
    60 H5D1        76.1198   -64.7500    45.7037 H            1 NAP402   0.0000
    61 H5D2        75.7856   -65.6936    44.4135 H            1 NAP402   0.0000
    62 H4D         73.7669   -64.2440    45.8730 H            1 NAP402   0.0000
    63 H3D         74.9006   -66.6613    46.5722 H            1 NAP402   0.0000
    64 H16         74.0212   -66.0808    48.4425 H            1 NAP402   0.0000
    65 H2D         73.3807   -67.9382    45.5212 H            1 NAP402   0.0000
    66 H18         72.4055   -68.4111    47.3812 H            1 NAP402   0.0000
    67 H1D         71.5057   -65.7732    45.4289 H            1 NAP402   0.0000
    68 H2N         69.6425   -66.6157    44.3131 H            1 NAP402   0.0000
    69 H7N1        67.1354   -68.1513    40.6260 H            1 NAP402   0.0000
    70 H7N2        68.7691   -68.7020    40.4595 H            1 NAP402   0.0000
    71 H4N         70.1663   -69.5413    41.4266 H            1 NAP402   0.0000
    72 H5N         72.5215   -69.5021    41.7884 H            1 NAP402   0.0000
    73 H6N         73.4178   -68.0003    43.4218 H            1 NAP402   0.0000
@<TRIPOS>BOND
     1    1    2      ar
     2    1    3      ar
     3    1    4       1
     4    1   23       1
     5    4    5       1
     6    5    6       1
     7    6    7       1
     8    6    8       1
     9    7   12       1
    10    8    9       1
    11    8   10       1
    12   10   11       1
    13   10   12       1
    14   11   45       1
    15   12   13       1
    16   13   14       1
    17   13   22       1
    18   14   15       2
    19   15   16       1
    20   16   17      ar
    21   16   22      ar
    22   17   18       1
    23   17   19      ar
    24   19   20      ar
    25   20   21      ar
    26   21   22      ar
    27   23   24       1
    28   24   25      ar
    29   24   26      ar
    30   24   27       1
    31   27   28       1
    32   28   29       1
    33   29   30       1
    34   29   31       1
    35   30   35       1
    36   31   32       1
    37   31   33       1
    38   33   34       1
    39   33   35       1
    40   35   36       1
    41   36   37      ar
    42   36   44      ar
    43   37   38      ar
    44   38   39       1
    45   38   42      ar
    46   39   40       2
    47   39   41      am
    48   42   43      ar
    49   43   44      ar
    50   45   46      ar
    51   45   47      ar
    52   45   48      ar
    53   43   72       1
    54    5   49       1
    55    5   50       1
    56    6   51       1
    57    8   52       1
    58    9   53       1
    59   10   54       1
    60   12   55       1
    61   14   56       1
    62   18   57       1
    63   18   58       1
    64   20   59       1
    65   44   73       1
    66   28   60       1
    67   28   61       1
    68   29   62       1
    69   31   63       1
    70   32   64       1
    71   33   65       1
    72   34   66       1
    73   35   67       1
    74   37   68       1
    75   41   69       1
    76   41   70       1
    77   42   71       1
@<TRIPOS>SUBSTRUCTURE
     1 NAP402      1 GROUP             4 A     NAP     0 **** NAP A 402
