@<TRIPOS>MOLECULE
./coach420/2x4o/ligand.pdb
 68 68 0 0 0
SMALL
GASTEIGER

@<TRIPOS>ATOM
      1  N          7.2140    7.5980   27.2770 N.3     1  LYS1       -0.1231
      2  CA         5.9900    6.9040   27.6730 C.3     1  LYS1        0.1693
      3  C          5.0790    6.6460   26.4790 C.2     1  LYS1        0.2592
      4  O          4.8750    7.5300   25.6470 O.2     1  LYS1       -0.2718
      5  CB         5.2260    7.7320   28.7140 C.3     1  LYS1        0.0285
      6  CG         5.8900    7.7850   30.0740 C.3     1  LYS1        0.0035
      7  CD         4.9840    8.4120   31.1210 C.3     1  LYS1        0.0206
      8  CE         5.4760    8.0610   32.5270 C.3     1  LYS1        0.1093
      9  NZ         4.5860    8.5790   33.5990 N.3     1  LYS1       -0.1314
     10  N          4.5240    5.4410   26.4080 N.am    2  LEU2       -0.1966
     11  CA         3.5160    5.1090   25.4010 C.3     2  LEU2        0.1728
     12  C          2.2490    5.9180   25.5950 C.2     2  LEU2        0.2617
     13  O          1.9950    6.4400   26.6800 O.2     2  LEU2       -0.2715
     14  CB         3.1250    3.6390   25.5000 C.3     2  LEU2        0.0311
     15  CG         4.1950    2.5780   25.3770 C.3     2  LEU2        0.0022
     16  CD1        3.6400    1.2690   25.9120 C.3     2  LEU2        0.0001
     17  CD2        4.6380    2.4540   23.9250 C.3     2  LEU2        0.0001
     18  N          1.4290    5.9830   24.5520 N.am    3  THR3       -0.1937
     19  CA         0.0960    6.5710   24.6710 C.3     3  THR3        0.2013
     20  C         -0.8100    5.6450   25.4960 C.2     3  THR3        0.2484
     21  O         -0.7050    4.4230   25.3920 O.2     3  THR3       -0.2729
     22  CB        -0.5260    6.8520   23.2900 C.3     3  THR3        0.1807
     23  OG1       -1.8280    7.4240   23.4580 O.3     3  THR3       -0.2208
     24  CG2       -0.6350    5.5750   22.4770 C.3     3  THR3        0.0379
     25  N         -1.6830    6.2340   26.3380 N.am    4  PRO4       -0.2715
     26  CA        -2.5430    5.5180   27.2950 C.3     4  PRO4        0.1536
     27  C         -3.9690    5.1860   26.8260 C.2     4  PRO4        0.2598
     28  O         -4.7480    4.6830   27.6440 O.2     4  PRO4       -0.2715
     29  CB        -2.6200    6.4860   28.4940 C.3     4  PRO4        0.0310
     30  CG        -1.6540    7.6270   28.1690 C.3     4  PRO4        0.0237
     31  CD        -1.5960    7.6610   26.6770 C.3     4  PRO4        0.0939
     32  N         -4.3190    5.4620   25.5720 N.am    5  LEU5       -0.1964
     33  CA        -5.6100    5.0090   25.0500 C.3     5  LEU5        0.1728
     34  C         -5.3700    3.9390   23.9870 C.2     5  LEU5        0.2616
     35  O         -4.2230    3.6260   23.6770 O.2     5  LEU5       -0.2715
     36  CB        -6.4330    6.1810   24.4960 C.3     5  LEU5        0.0311
     37  CG        -7.9690    6.1130   24.6590 C.3     5  LEU5        0.0022
     38  CD1       -8.6600    5.3980   23.4970 C.3     5  LEU5        0.0001
     39  CD2       -8.3610    5.4880   25.9990 C.3     5  LEU5        0.0001
     40  N         -6.4370    3.3630   23.4440 N.am    6  CYS6       -0.1954
     41  CA        -6.2800    2.2750   22.4830 C.3     6  CYS6        0.1843
     42  C         -7.0880    2.4750   21.2070 C.2     6  CYS6        0.2625
     43  O         -8.3110    2.3270   21.2100 O.2     6  CYS6       -0.2714
     44  CB        -6.6230    0.9250   23.1270 C.3     6  CYS6        0.0997
     45  SG        -8.2720    0.8400   23.8600 S.3     6  CYS6       -0.0797
     46  N         -6.3940    2.8100   20.1220 N.am    7  VAL7       -0.1963
     47  CA        -7.0260    2.9180   18.8170 C.3     7  VAL7        0.1727
     48  C         -7.0640    1.5350   18.1940 C.2     7  VAL7        0.2617
     49  O         -6.3010    0.6590   18.5870 O.2     7  VAL7       -0.2715
     50  CB        -6.2450    3.8640   17.8800 C.3     7  VAL7        0.0290
     51  CG1       -5.7190    5.0620   18.6550 C.3     7  VAL7        0.0023
     52  CG2       -5.1030    3.1230   17.2050 C.3     7  VAL7        0.0023
     53  N         -7.9470    1.3380   17.2230 N.am    8  THR8       -0.1937
     54  CA        -8.0960    0.0320   16.5880 C.3     8  THR8        0.2028
     55  C         -8.5440    0.1670   15.1270 C.2     8  THR8        0.2643
     56  O         -9.3570    1.0270   14.7920 O.2     8  THR8       -0.2714
     57  CB        -9.0720   -0.8660   17.3800 C.3     8  THR8        0.1808
     58  OG1       -8.9350   -2.2250   16.9510 O.3     8  THR8       -0.2208
     59  CG2      -10.5090   -0.4040   17.1890 C.3     8  THR8        0.0379
     60  N         -7.9900   -0.6840   14.2670 N.am    9  LEU9       -0.1941
     61  CA        -8.2160   -0.6160   12.8250 C.3     9  LEU9        0.1978
     62  C         -9.6580   -0.9200   12.4400 C.2     9  LEU9        0.3842
     63  O        -10.1160   -0.5560   11.3570 O.co2   9  LEU9       -0.2437
     64  CB        -7.2750   -1.5800   12.0970 C.3     9  LEU9        0.0333
     65  CG        -5.8990   -1.0610   11.6520 C.3     9  LEU9        0.0023
     66  CD1       -5.5650    0.2960   12.2510 C.3     9  LEU9        0.0001
     67  CD2       -4.7950   -2.0780   11.9520 C.3     9  LEU9        0.0001
     68  OXT      -10.3960   -1.5550   13.1900 O.co2   9  LEU9       -0.2437
@<TRIPOS>BOND
     1     1     2    1
     2     2     3    1
     3     2     5    1
     4     3     4    2
     5     3    10   am
     6     5     6    1
     7     6     7    1
     8     7     8    1
     9     8     9    1
    10    10    11    1
    11    11    14    1
    12    11    12    1
    13    12    18   am
    14    12    13    2
    15    14    15    1
    16    15    17    1
    17    15    16    1
    18    18    19    1
    19    19    22    1
    20    19    20    1
    21    20    21    2
    22    20    25   am
    23    22    24    1
    24    22    23    1
    25    25    31    1
    26    25    26    1
    27    26    27    1
    28    26    29    1
    29    27    32   am
    30    27    28    2
    31    29    30    1
    32    30    31    1
    33    32    33    1
    34    33    34    1
    35    33    36    1
    36    34    40   am
    37    34    35    2
    38    36    37    1
    39    37    38    1
    40    37    39    1
    41    40    41    1
    42    41    42    1
    43    41    44    1
    44    42    46   am
    45    42    43    2
    46    44    45    1
    47    46    47    1
    48    47    50    1
    49    47    48    1
    50    48    53   am
    51    48    49    2
    52    50    52    1
    53    50    51    1
    54    53    54    1
    55    54    55    1
    56    54    57    1
    57    55    60   am
    58    55    56    2
    59    57    58    1
    60    57    59    1
    61    60    61    1
    62    61    64    1
    63    61    62    1
    64    62    63   ar
    65    62    68   ar
    66    64    65    1
    67    65    67    1
    68    65    66    1
