@<TRIPOS>MOLECULE
1ahb_FMP_1_ligand
   35    37     1     0     0
SMALL
NO_CHARGES


@<TRIPOS>ATOM
     1 P           59.5090    90.4430    -2.1140 P.3          1 FMP339   0.0000
     2 O1P         60.1840    91.5460    -2.8490 O.co2        1 FMP339   0.0000
     3 O2P         58.1010    90.7400    -1.7180 O.co2        1 FMP339  -1.0000
     4 O3P         59.7310    89.0610    -2.6690 O.co2        1 FMP339  -1.0000
     5 O5'         60.3400    90.3730    -0.8020 O.3          1 FMP339   0.0000
     6 C5'         61.7340    90.0690    -0.6170 C.3          1 FMP339   0.0000
     7 C4'         61.9460    89.6540     0.8460 C.3          1 FMP339   0.0000
     8 O4'         61.5290    90.7320     1.6670 O.3          1 FMP339   0.0000
     9 C3'         61.1440    88.4160     1.2910 C.3          1 FMP339   0.0000
    10 O3'         62.0390    87.3610     1.6460 O.3          1 FMP339   0.0000
    11 C2'         60.4640    88.9320     2.5360 C.3          1 FMP339   0.0000
    12 O2'         60.4000    87.9090     3.5410 O.3          1 FMP339   0.0000
    13 C1'         61.3530    90.1000     2.9180 C.3          1 FMP339   0.0000
    14 C9          60.7070    91.1030     3.7780 C.2          1 FMP339   0.0000
    15 N8          60.1080    92.1830     3.3650 N.2          1 FMP339   0.0000
    16 N7          59.5580    92.8820     4.3620 N.pl3        1 FMP339   0.0000
    17 C6          59.6610    92.4340     6.8720 C.ar         1 FMP339   0.0000
    18 N6          58.7670    93.3510     7.2370 N.pl3        1 FMP339   0.0000
    19 C5          59.9400    92.2180     5.5130 C.ar         1 FMP339   0.0000
    20 C4          60.6960    91.1400     5.1830 C.ar         1 FMP339   0.0000
    21 N3          61.2940    90.2860     6.0710 N.ar         1 FMP339   0.0000
    22 C2          61.0280    90.6480     7.3260 C.ar         1 FMP339   0.0000
    23 N1          60.2710    91.6430     7.7820 N.ar         1 FMP339   0.0000
    24 H5'1        62.2866    90.8766    -0.8230 H            1 FMP339   0.0000
    25 H5'2        62.0001    89.3195    -1.2232 H            1 FMP339   0.0000
    26 H4'         62.9195    89.4846     0.9994 H            1 FMP339   0.0000
    27 H3'         60.4843    88.1287     0.5966 H            1 FMP339   0.0000
    28 H5          62.8909    87.7503     1.9963 H            1 FMP339   0.0000
    29 H2'         59.5441    89.2569     2.3164 H            1 FMP339   0.0000
    30 H7          59.9469    88.2703     4.3560 H            1 FMP339   0.0000
    31 H1'         62.2236    89.7912     3.3011 H            1 FMP339   0.0000
    32 H9          58.9940    93.7047     4.2913 H            1 FMP339   0.0000
    33 H10         58.5718    93.5010     8.2062 H            1 FMP339   0.0000
    34 H11         58.2908    93.8896     6.5419 H            1 FMP339   0.0000
    35 H12         61.4627    90.0876     8.0309 H            1 FMP339   0.0000
@<TRIPOS>BOND
     1    1    2      ar
     2    1    3      ar
     3    1    4      ar
     4    1    5       1
     5    5    6       1
     6    6    7       1
     7    7    8       1
     8    7    9       1
     9    8   13       1
    10    9   10       1
    11    9   11       1
    12   11   12       1
    13   11   13       1
    14   13   14       1
    15   14   15       2
    16   14   20       1
    17   15   16       1
    18   16   19       1
    19   17   18       1
    20   17   19      ar
    21   17   23      ar
    22   19   20      ar
    23   20   21      ar
    24   21   22      ar
    25   22   23      ar
    26   22   35       1
    27   18   34       1
    28    6   24       1
    29    6   25       1
    30    7   26       1
    31    9   27       1
    32   10   28       1
    33   11   29       1
    34   12   30       1
    35   13   31       1
    36   16   32       1
    37   18   33       1
@<TRIPOS>SUBSTRUCTURE
     1 FMP339      1 GROUP             4 A     FMP     0 **** FMP A 339
