@<TRIPOS>MOLECULE
3gvu_STI_1_ligand
   70    74     1     0     0
SMALL
NO_CHARGES


@<TRIPOS>ATOM
     1 C1           6.5740     7.6540    23.3390 C.ar         1 STI1001   0.0000
     2 C6           7.4130     8.3860    22.5000 C.ar         1 STI1001   0.0000
     3 C5           8.4740     7.7180    21.8660 C.ar         1 STI1001   0.0000
     4 C4           8.6330     6.3510    22.1020 C.ar         1 STI1001   0.0000
     5 N3           7.8150     5.6800    22.9090 N.ar         1 STI1001   0.0000
     6 C2           6.8080     6.2840    23.5180 C.ar         1 STI1001   0.0000
     7 C7           9.3520     8.3900    21.0090 C.ar         1 STI1001   0.0000
     8 C12          9.1360     9.7250    20.6710 C.ar         1 STI1001   0.0000
     9 C11         10.0430    10.3330    19.8050 C.ar         1 STI1001   0.0000
    10 N10         11.0820     9.6760    19.3270 N.ar         1 STI1001   0.0000
    11 C9          11.2910     8.4030    19.6710 C.ar         1 STI1001   0.0000
    12 N8          10.4260     7.7590    20.4800 N.ar         1 STI1001   0.0000
    13 N13         12.3370     7.7430    19.1900 N.pl3        1 STI1001   0.0000
    14 C14         13.1720     8.2180    18.2450 C.ar         1 STI1001   0.0000
    15 C19         12.8640     8.1260    16.9010 C.ar         1 STI1001   0.0000
    16 C18         13.7850     8.5730    15.9640 C.ar         1 STI1001   0.0000
    17 C17         14.9980     9.0950    16.3390 C.ar         1 STI1001   0.0000
    18 C16         15.3370     9.1920    17.6800 C.ar         1 STI1001   0.0000
    19 C15         14.4110     8.7260    18.6160 C.ar         1 STI1001   0.0000
    20 N21         16.5710     9.6630    17.9920 N.am         1 STI1001   0.0000
    21 C22         17.0770     9.8360    19.2270 C.2          1 STI1001   0.0000
    22 C23         18.5640    10.2230    19.2890 C.ar         1 STI1001   0.0000
    23 C25         19.2470    10.8230    18.2380 C.ar         1 STI1001   0.0000
    24 C26         20.5980    11.1530    18.3750 C.ar         1 STI1001   0.0000
    25 C27         21.2810    10.8870    19.5570 C.ar         1 STI1001   0.0000
    26 C28         20.5900    10.2840    20.5790 C.ar         1 STI1001   0.0000
    27 C29         19.2470     9.9610    20.4560 C.ar         1 STI1001   0.0000
    28 C46         22.7850    11.2550    19.7710 C.3          1 STI1001   0.0000
    29 N48         23.0820    12.6190    19.2840 N.4          1 STI1001   1.0000
    30 C53         22.2630    13.5090    20.0220 C.3          1 STI1001   0.0000
    31 C52         22.5130    14.8940    19.4090 C.3          1 STI1001   0.0000
    32 N51         23.9200    15.3340    19.5840 N.4          1 STI1001   1.0000
    33 C54         24.2840    16.4960    18.7780 C.3          1 STI1001   0.0000
    34 C50         24.7180    14.3030    18.8430 C.3          1 STI1001   0.0000
    35 C49         24.4870    12.8940    19.4590 C.3          1 STI1001   0.0000
    36 O29         16.4480     9.7480    20.2870 O.2          1 STI1001   0.0000
    37 C20         11.5170     7.5620    16.4330 C.3          1 STI1001   0.0000
    38 H1           5.8130     8.1020    23.8083 H            1 STI1001   0.0000
    39 H2           7.2631     9.3637    22.3529 H            1 STI1001   0.0000
    40 H3           9.3815     5.8633    21.6526 H            1 STI1001   0.0000
    41 H4           6.2048     5.7551    24.1150 H            1 STI1001   0.0000
    42 H5           8.3551    10.2303    21.0382 H            1 STI1001   0.0000
    43 H6           9.9032    11.2872    19.5405 H            1 STI1001   0.0000
    44 H7          12.5182     6.8295    19.5542 H            1 STI1001   0.0000
    45 H8          13.5594     8.5134    14.9916 H            1 STI1001   0.0000
    46 H9          15.6415     9.4074    15.6403 H            1 STI1001   0.0000
    47 H10         14.6479     8.7591    19.5870 H            1 STI1001   0.0000
    48 H11         17.1653     9.9065    17.2255 H            1 STI1001   0.0000
    49 H12         18.7703    11.0192    17.3811 H            1 STI1001   0.0000
    50 H13         21.0799    11.5860    17.6133 H            1 STI1001   0.0000
    51 H14         21.0666    10.0727    21.4324 H            1 STI1001   0.0000
    52 H15         18.7691     9.5331    21.2232 H            1 STI1001   0.0000
    53 H16         23.3540    10.6007    19.2728 H            1 STI1001   0.0000
    54 H17         22.9963    11.2050    20.7471 H            1 STI1001   0.0000
    55 H18         22.5206    13.5021    20.9882 H            1 STI1001   0.0000
    56 H19         21.3000    13.2549    19.9319 H            1 STI1001   0.0000
    57 H20         21.9099    15.5570    19.8525 H            1 STI1001   0.0000
    58 H21         22.3057    14.8566    18.4314 H            1 STI1001   0.0000
    59 H22         25.2406    16.7329    18.9476 H            1 STI1001   0.0000
    60 H23         24.1604    16.2816    17.8091 H            1 STI1001   0.0000
    61 H24         23.7002    17.2693    19.0253 H            1 STI1001   0.0000
    62 H25         25.6894    14.5332    18.9018 H            1 STI1001   0.0000
    63 H26         24.4350    14.2939    17.8839 H            1 STI1001   0.0000
    64 H27         25.0386    12.2098    18.9818 H            1 STI1001   0.0000
    65 H28         24.7241    12.8947    20.4305 H            1 STI1001   0.0000
    66 H29         11.4790     7.5756    15.4338 H            1 STI1001   0.0000
    67 H30         11.4186     6.6213    16.7576 H            1 STI1001   0.0000
    68 H31         10.7750     8.1214    16.8024 H            1 STI1001   0.0000
    69 H32         22.8500    12.6824    18.3133 H            1 STI1001   0.0000
    70 H33         24.1873    15.4224    20.5435 H            1 STI1001   0.0000
@<TRIPOS>BOND
     1    1    2      ar
     2    1    6      ar
     3    2    3      ar
     4    3    4      ar
     5    3    7       1
     6    4    5      ar
     7    5    6      ar
     8    7    8      ar
     9    7   12      ar
    10    8    9      ar
    11    9   10      ar
    12   10   11      ar
    13   11   12      ar
    14   11   13       1
    15   13   14       1
    16   14   15      ar
    17   14   19      ar
    18   15   16      ar
    19   15   37       1
    20   16   17      ar
    21   17   18      ar
    22   18   19      ar
    23   18   20       1
    24   20   21      am
    25   21   22       1
    26   21   36       2
    27   22   23      ar
    28   22   27      ar
    29   23   24      ar
    30   24   25      ar
    31   25   26      ar
    32   25   28       1
    33   26   27      ar
    34   28   29       1
    35   29   30       1
    36   29   35       1
    37   30   31       1
    38   31   32       1
    39   32   33       1
    40   32   34       1
    41   34   35       1
    42    1   38       1
    43    2   39       1
    44    4   40       1
    45    6   41       1
    46    8   42       1
    47    9   43       1
    48   13   44       1
    49   16   45       1
    50   17   46       1
    51   19   47       1
    52   20   48       1
    53   23   49       1
    54   24   50       1
    55   26   51       1
    56   27   52       1
    57   28   53       1
    58   28   54       1
    59   30   55       1
    60   30   56       1
    61   31   57       1
    62   31   58       1
    63   33   59       1
    64   33   60       1
    65   33   61       1
    66   34   62       1
    67   34   63       1
    68   35   64       1
    69   35   65       1
    70   37   66       1
    71   37   67       1
    72   37   68       1
    73   29   69       1
    74   32   70       1
@<TRIPOS>SUBSTRUCTURE
     1 STI1001     1 GROUP             4 A     STI     0 **** STI A1001
