@<TRIPOS>MOLECULE
1i80_9HX_3_ligand
   15    16     1     0     0
SMALL
NO_CHARGES


@<TRIPOS>ATOM
     1 C9          29.3560    32.7100     8.4770 C.2          1 9HX302   0.0000
     2 C8          30.3390    33.3220     9.2350 C.2          1 9HX302   0.0000
     3 N7          29.8090    34.3230     9.9860 N.pl3        1 9HX302   0.0000
     4 C5          28.4620    34.3570     9.7090 C.2          1 9HX302   0.0000
     5 C6          27.4140    35.1910    10.1920 C.2          1 9HX302   0.0000
     6 O6          27.4520    36.1240    11.0190 O.2          1 9HX302   0.0000
     7 N1          26.1780    34.8430     9.6060 N.pl3        1 9HX302   0.0000
     8 C2          25.9590    33.8380     8.6750 C.2          1 9HX302   0.0000
     9 N3          26.9530    33.0640     8.2320 N.2          1 9HX302   0.0000
    10 C4          28.1720    33.3720     8.7790 C.2          1 9HX302   0.0000
    11 H1          29.4737    31.9469     7.8415 H            1 9HX302   0.0000
    12 H2          31.3050    33.0636     9.2307 H            1 9HX302   0.0000
    13 H3          30.3030    34.9199    10.6182 H            1 9HX302   0.0000
    14 H4          25.3800    35.3742     9.8905 H            1 9HX302   0.0000
    15 H5          25.0334    33.6894     8.3269 H            1 9HX302   0.0000
@<TRIPOS>BOND
     1    1    2       2
     2    1   10       1
     3    2    3       1
     4    3    4       1
     5    4    5       1
     6    4   10       2
     7    5    6       2
     8    5    7       1
     9    7    8       1
    10    8    9       2
    11    9   10       1
    12    1   11       1
    13    2   12       1
    14    3   13       1
    15    7   14       1
    16    8   15       1
@<TRIPOS>SUBSTRUCTURE
     1 9HX302      1 GROUP             4 B     9HX     0 **** 9HX B 302
