@<TRIPOS>MOLECULE
4p5a_FAD_2_ligand
   84    89     1     0     0
SMALL
NO_CHARGES


@<TRIPOS>ATOM
     1 PA          11.7040    27.1540    39.4990 P.3          1 FAD302   0.0000
     2 O1A         10.5930    28.1030    39.3430 O.co2        1 FAD302   0.0000
     3 O2A         11.6850    25.8420    38.9160 O.co2        1 FAD302  -1.0000
     4 O5B         12.0130    27.0430    41.0200 O.3          1 FAD302   0.0000
     5 C5B         12.1280    28.2580    41.8630 C.3          1 FAD302   0.0000
     6 C4B         12.8920    27.9490    43.1220 C.3          1 FAD302   0.0000
     7 O4B         12.2040    26.8960    43.8280 O.3          1 FAD302   0.0000
     8 C3B         14.2450    27.3750    42.8420 C.3          1 FAD302   0.0000
     9 O3B         15.2150    28.4280    42.6230 O.3          1 FAD302   0.0000
    10 C2B         14.5770    26.5910    44.1240 C.3          1 FAD302   0.0000
    11 O2B         14.8650    27.5940    45.1660 O.3          1 FAD302   0.0000
    12 C1B         13.1810    25.9870    44.4720 C.3          1 FAD302   0.0000
    13 N9A         12.9480    24.6340    43.9350 N.pl3        1 FAD302   0.0000
    14 C8A         11.8980    24.2660    43.1800 C.2          1 FAD302   0.0000
    15 N7A         11.9270    22.9560    42.9410 N.2          1 FAD302   0.0000
    16 C5A         13.0230    22.4540    43.6380 C.ar         1 FAD302   0.0000
    17 C6A         13.6200    21.1820    43.8250 C.ar         1 FAD302   0.0000
    18 N6A         13.0950    20.0360    43.2880 N.pl3        1 FAD302   0.0000
    19 N1A         14.7580    21.1230    44.5910 N.ar         1 FAD302   0.0000
    20 C2A         15.2820    22.2100    45.2040 C.ar         1 FAD302   0.0000
    21 N3A         14.7420    23.4470    45.0500 N.ar         1 FAD302   0.0000
    22 C4A         13.6550    23.5730    44.2360 C.ar         1 FAD302   0.0000
    23 N1          18.7370    24.3800    32.1690 N.2          1 FAD302   0.0000
    24 C2          19.2860    23.2110    31.7090 C.2          1 FAD302   0.0000
    25 O2          18.6950    22.1430    31.7080 O.2          1 FAD302   0.0000
    26 N3          20.5060    23.2620    31.0760 N.pl3        1 FAD302   0.0000
    27 C4          21.1780    24.4660    30.9110 C.2          1 FAD302   0.0000
    28 O4          22.3220    24.4020    30.3830 O.2          1 FAD302   0.0000
    29 C4X         20.6180    25.6570    31.4090 C.2          1 FAD302   0.0000
    30 N5          21.2970    26.8970    31.4010 N.2          1 FAD302   0.0000
    31 C5X         20.5810    28.0800    31.7500 C.ar         1 FAD302   0.0000
    32 C6          21.0640    29.3900    31.5260 C.ar         1 FAD302   0.0000
    33 C7          20.3500    30.5370    31.9060 C.ar         1 FAD302   0.0000
    34 C7M         21.0290    31.8800    31.5870 C.3          1 FAD302   0.0000
    35 C8          19.0500    30.4780    32.4840 C.ar         1 FAD302   0.0000
    36 C8M         18.2600    31.7340    32.9690 C.3          1 FAD302   0.0000
    37 C9          18.5290    29.1810    32.7040 C.ar         1 FAD302   0.0000
    38 C9A         19.2640    28.0080    32.2920 C.ar         1 FAD302   0.0000
    39 N10         18.7260    26.7120    32.5150 N.pl3        1 FAD302   0.0000
    40 C10         19.3950    25.5850    32.0330 C.2          1 FAD302   0.0000
    41 C1'         17.3530    26.5430    33.0740 C.3          1 FAD302   0.0000
    42 C2'         17.6400    26.6260    34.6390 C.3          1 FAD302   0.0000
    43 O2'         18.4380    25.5050    35.1230 O.3          1 FAD302   0.0000
    44 C3'         16.3130    26.4920    35.4300 C.3          1 FAD302   0.0000
    45 O3'         15.5470    25.3300    35.0640 O.3          1 FAD302   0.0000
    46 C4'         15.3540    27.7760    35.1930 C.3          1 FAD302   0.0000
    47 O4'         16.1450    28.9180    35.1730 O.3          1 FAD302   0.0000
    48 C5'         14.2980    27.8170    36.3280 C.3          1 FAD302   0.0000
    49 O5'         14.9590    28.3040    37.5150 O.3          1 FAD302   0.0000
    50 P           14.5380    27.6320    38.9220 P.3          1 FAD302   0.0000
    51 O1P         14.7430    26.1520    38.9710 O.co2        1 FAD302   0.0000
    52 O2P         15.3030    28.3950    39.9250 O.co2        1 FAD302  -1.0000
    53 O3P         12.9790    27.9200    39.0320 O.3          1 FAD302   0.0000
    54 H5B1        11.2125    28.5807    42.1034 H            1 FAD302   0.0000
    55 H5B2        12.6089    28.9702    41.3516 H            1 FAD302   0.0000
    56 H4B         12.9684    28.7646    43.6955 H            1 FAD302   0.0000
    57 H3B         14.2096    26.7606    42.0538 H            1 FAD302   0.0000
    58 H5          15.2425    28.6588    41.6504 H            1 FAD302   0.0000
    59 H2B         15.2978    25.9077    44.0073 H            1 FAD302   0.0000
    60 H7          15.8412    27.8106    45.1594 H            1 FAD302   0.0000
    61 H1B         13.0463    25.9884    45.4629 H            1 FAD302   0.0000
    62 H8A         11.1924    24.8900    42.8441 H            1 FAD302   0.0000
    63 H6A1        13.5474    19.1579    43.4438 H            1 FAD302   0.0000
    64 H6A2        12.2594    20.0777    42.7402 H            1 FAD302   0.0000
    65 H2A         16.0879    22.0996    45.7856 H            1 FAD302   0.0000
    66 H13         20.9158    22.4184    30.7290 H            1 FAD302   0.0000
    67 H14         21.9509    29.5039    31.0784 H            1 FAD302   0.0000
    68 H7M1        20.4443    32.6306    31.8949 H            1 FAD302   0.0000
    69 H7M2        21.9096    31.9285    32.0583 H            1 FAD302   0.0000
    70 H7M3        21.1745    31.9539    30.6004 H            1 FAD302   0.0000
    71 H8M1        17.3749    31.4494    33.3372 H            1 FAD302   0.0000
    72 H8M2        18.7827    32.2018    33.6817 H            1 FAD302   0.0000
    73 H8M3        18.1164    32.3554    32.1988 H            1 FAD302   0.0000
    74 H21         17.6405    29.0752    33.1505 H            1 FAD302   0.0000
    75 H1'1        16.9608    25.6588    32.8202 H            1 FAD302   0.0000
    76 H1'2        16.7430    27.2766    32.7744 H            1 FAD302   0.0000
    77 H2'         18.0890    27.4912    34.8622 H            1 FAD302   0.0000
    78 H25         18.5895    25.6038    36.1065 H            1 FAD302   0.0000
    79 H3'         16.5297    26.4343    36.4045 H            1 FAD302   0.0000
    80 H27         16.1659    24.6027    34.7674 H            1 FAD302   0.0000
    81 H4'         14.8886    27.6819    34.3129 H            1 FAD302   0.0000
    82 H29         15.5673    29.7211    35.0273 H            1 FAD302   0.0000
    83 H5'1        13.9354    26.8994    36.4908 H            1 FAD302   0.0000
    84 H5'2        13.5500    28.4313    36.0769 H            1 FAD302   0.0000
@<TRIPOS>BOND
     1    1    2      ar
     2    1    3      ar
     3    1    4       1
     4    1   53       1
     5    4    5       1
     6    5    6       1
     7    6    7       1
     8    6    8       1
     9    7   12       1
    10    8    9       1
    11    8   10       1
    12   10   11       1
    13   10   12       1
    14   12   13       1
    15   13   14       1
    16   13   22       1
    17   14   15       2
    18   15   16       1
    19   16   17      ar
    20   16   22      ar
    21   17   18       1
    22   17   19      ar
    23   19   20      ar
    24   20   21      ar
    25   21   22      ar
    26   23   24       1
    27   23   40       2
    28   24   25       2
    29   24   26       1
    30   26   27       1
    31   27   28       2
    32   27   29       1
    33   29   30       2
    34   29   40       1
    35   30   31       1
    36   31   32      ar
    37   31   38      ar
    38   32   33      ar
    39   33   34       1
    40   33   35      ar
    41   35   36       1
    42   35   37      ar
    43   37   38      ar
    44   38   39       1
    45   39   40       1
    46   39   41       1
    47   41   42       1
    48   42   43       1
    49   42   44       1
    50   44   45       1
    51   44   46       1
    52   46   47       1
    53   46   48       1
    54   48   49       1
    55   49   50       1
    56   50   51      ar
    57   50   52      ar
    58   50   53       1
    59   48   84       1
    60    5   54       1
    61    5   55       1
    62    6   56       1
    63    8   57       1
    64    9   58       1
    65   10   59       1
    66   11   60       1
    67   12   61       1
    68   14   62       1
    69   18   63       1
    70   18   64       1
    71   20   65       1
    72   26   66       1
    73   32   67       1
    74   34   68       1
    75   34   69       1
    76   34   70       1
    77   36   71       1
    78   36   72       1
    79   36   73       1
    80   37   74       1
    81   41   75       1
    82   41   76       1
    83   42   77       1
    84   43   78       1
    85   44   79       1
    86   45   80       1
    87   46   81       1
    88   47   82       1
    89   48   83       1
@<TRIPOS>SUBSTRUCTURE
     1 FAD302      1 GROUP             4 B     FAD     0 **** FAD B 302
