@<TRIPOS>MOLECULE
5e6y_ACX_1_ligand
  126   132     1     0     0
SMALL
NO_CHARGES


@<TRIPOS>ATOM
     1 C1A         27.1700    64.1750    38.8280 C.3          1 ACX801   0.0000
     2 C2A         27.1730    65.2230    39.9750 C.3          1 ACX801   0.0000
     3 C3A         25.8450    65.2430    40.7590 C.3          1 ACX801   0.0000
     4 C4A         24.6070    64.9770    39.8940 C.3          1 ACX801   0.0000
     5 C5A         24.8620    63.9740    38.7760 C.3          1 ACX801   0.0000
     6 C6A         23.6450    63.8840    37.8200 C.3          1 ACX801   0.0000
     7 O1A         27.2170    62.8750    39.3270 O.3          1 ACX801   0.0000
     8 O2A         28.2530    64.9850    40.8480 O.3          1 ACX801   0.0000
     9 O3A         25.7100    66.5050    41.3810 O.3          1 ACX801   0.0000
    10 O5A         25.9920    64.2960    38.0040 O.3          1 ACX801   0.0000
    11 O6A         23.3430    62.5370    37.5750 O.3          1 ACX801   0.0000
    12 C1B         28.5620    58.9850    38.9740 C.3          1 ACX801   0.0000
    13 C2B         29.6220    59.9900    39.4900 C.3          1 ACX801   0.0000
    14 C3B         29.0750    61.4210    39.6880 C.3          1 ACX801   0.0000
    15 C4B         27.9800    61.8230    38.7070 C.3          1 ACX801   0.0000
    16 C5B         27.0630    60.6720    38.3020 C.3          1 ACX801   0.0000
    17 C6B         26.1630    61.1020    37.1100 C.3          1 ACX801   0.0000
    18 O1B         27.7150    58.5850    40.0080 O.3          1 ACX801   0.0000
    19 O2B         30.1600    59.5230    40.7010 O.3          1 ACX801   0.0000
    20 O3B         30.1540    62.3260    39.5480 O.3          1 ACX801   0.0000
    21 O5B         27.7710    59.5230    37.9040 O.3          1 ACX801   0.0000
    22 O6B         24.8200    60.7870    37.3850 O.3          1 ACX801   0.0000
    23 C1C         26.0260    55.5370    41.8340 C.3          1 ACX801   0.0000
    24 C2C         27.1570    56.2210    42.6090 C.3          1 ACX801   0.0000
    25 C3C         28.1870    57.0300    41.7730 C.3          1 ACX801   0.0000
    26 C4C         27.8690    57.1900    40.2640 C.3          1 ACX801   0.0000
    27 C5C         26.6300    56.3920    39.7800 C.3          1 ACX801   0.0000
    28 C6C         26.7750    56.0380    38.2810 C.3          1 ACX801   0.0000
    29 O1C         24.9360    56.4270    41.8040 O.3          1 ACX801   0.0000
    30 O2C         26.5400    57.0980    43.5320 O.3          1 ACX801   0.0000
    31 O3C         29.4830    56.4750    41.9240 O.3          1 ACX801   0.0000
    32 O5C         26.3930    55.2080    40.5170 O.3          1 ACX801   0.0000
    33 O6C         27.1730    54.7080    38.1060 O.3          1 ACX801   0.0000
    34 C1D         21.0460    56.8620    42.9640 C.3          1 ACX801   0.0000
    35 C2D         21.9730    56.2550    44.0470 C.3          1 ACX801   0.0000
    36 C3D         23.4010    56.6480    43.6340 C.3          1 ACX801   0.0000
    37 C4D         23.7590    55.8550    42.3920 C.3          1 ACX801   0.0000
    38 C5D         22.6410    55.8360    41.3530 C.3          1 ACX801   0.0000
    39 C6D         22.2360    54.3660    41.0670 C.3          1 ACX801   0.0000
    40 O1D         21.0990    58.2370    43.0800 O.3          1 ACX801   0.0000
    41 O2D         21.6340    56.7020    45.3400 O.3          1 ACX801   0.0000
    42 O3D         24.3290    56.3900    44.6780 O.3          1 ACX801   0.0000
    43 O5D         21.4390    56.5580    41.5920 O.3          1 ACX801   0.0000
    44 O6D         22.7290    54.0180    39.8050 O.3          1 ACX801   0.0000
    45 C1E         19.2130    61.7680    42.7750 C.3          1 ACX801   0.0000
    46 C2E         19.0060    61.0780    44.1340 C.3          1 ACX801   0.0000
    47 C3E         19.7230    59.7210    44.2550 C.3          1 ACX801   0.0000
    48 C4E         19.7900    58.8830    43.0110 C.3          1 ACX801   0.0000
    49 C5E         19.6460    59.6040    41.6620 C.3          1 ACX801   0.0000
    50 C6E         19.0900    58.6370    40.5930 C.3          1 ACX801   0.0000
    51 O1E         20.4770    62.1470    42.5810 O.3          1 ACX801   0.0000
    52 O2E         19.4150    61.9390    45.1820 O.3          1 ACX801   0.0000
    53 O3E         19.0830    58.9340    45.2850 O.3          1 ACX801   0.0000
    54 O5E         18.8070    60.7650    41.6490 O.3          1 ACX801   0.0000
    55 O6E         17.8280    58.1530    40.9710 O.3          1 ACX801   0.0000
    56 C1F         22.5030    65.2980    40.8070 C.3          1 ACX801   0.0000
    57 C2F         22.1210    65.5240    42.2860 C.3          1 ACX801   0.0000
    58 C3F         21.3130    64.3690    42.9430 C.3          1 ACX801   0.0000
    59 C4F         20.5470    63.4560    41.9790 C.3          1 ACX801   0.0000
    60 C5F         21.2000    63.4020    40.5910 C.3          1 ACX801   0.0000
    61 C6F         20.3260    62.6170    39.5700 C.3          1 ACX801   0.0000
    62 O1F         23.6040    64.4460    40.7500 O.3          1 ACX801   0.0000
    63 O2F         23.2980    65.7580    43.0280 O.3          1 ACX801   0.0000
    64 O3F         20.3890    64.9350    43.8600 O.3          1 ACX801   0.0000
    65 O5F         21.4520    64.6850    40.0580 O.3          1 ACX801   0.0000
    66 O6F         21.0130    61.4840    39.0990 O.3          1 ACX801   0.0000
    67 H1A         27.9761    64.3262    38.2559 H            1 ACX801   0.0000
    68 H2A         27.3019    66.1262    39.5657 H            1 ACX801   0.0000
    69 H3A         25.8885    64.5428    41.4717 H            1 ACX801   0.0000
    70 H4A         24.2857    65.8383    39.5004 H            1 ACX801   0.0000
    71 H5A         25.0071    63.0740    39.1870 H            1 ACX801   0.0000
    72 H6A1        23.8645    64.3389    36.9569 H            1 ACX801   0.0000
    73 H6A2        22.8561    64.3314    38.2414 H            1 ACX801   0.0000
    74 H8          28.7722    64.1926    40.5277 H            1 ACX801   0.0000
    75 H9          25.7052    67.2216    40.6835 H            1 ACX801   0.0000
    76 H6A         24.1800    61.9925    37.6296 H            1 ACX801   0.0000
    77 H1B         29.0400    58.1760    38.6320 H            1 ACX801   0.0000
    78 H2B         30.3617    60.0316    38.8184 H            1 ACX801   0.0000
    79 H3B         28.7137    61.4979    40.6173 H            1 ACX801   0.0000
    80 H4B         28.4120    62.1888    37.8827 H            1 ACX801   0.0000
    81 H5B         26.4785    60.4373    39.0787 H            1 ACX801   0.0000
    82 H6B1        26.4541    60.6194    36.2839 H            1 ACX801   0.0000
    83 H6B2        26.2498    62.0881    36.9681 H            1 ACX801   0.0000
    84 H18         29.7311    58.6526    40.9426 H            1 ACX801   0.0000
    85 H19         30.8499    62.1242    40.2372 H            1 ACX801   0.0000
    86 H6B         24.6197    59.8644    37.0552 H            1 ACX801   0.0000
    87 H1C         25.7555    54.7039    42.3165 H            1 ACX801   0.0000
    88 H2C         27.6519    55.5212    43.1242 H            1 ACX801   0.0000
    89 H3C         28.2181    57.9505    42.1624 H            1 ACX801   0.0000
    90 H4C         28.6624    56.8686    39.7471 H            1 ACX801   0.0000
    91 H5C         25.8280    56.9809    39.8797 H            1 ACX801   0.0000
    92 H6C1        27.4600    56.6393    37.8696 H            1 ACX801   0.0000
    93 H6C2        25.8946    56.1764    37.8275 H            1 ACX801   0.0000
    94 H28         26.4166    57.9952    43.1080 H            1 ACX801   0.0000
    95 H29         29.6318    55.7797    41.2209 H            1 ACX801   0.0000
    96 H6C         27.2781    54.2712    38.9994 H            1 ACX801   0.0000
    97 H1D         20.1079    56.5515    43.1175 H            1 ACX801   0.0000
    98 H2D         21.8921    55.2587    44.0189 H            1 ACX801   0.0000
    99 H3D         23.4201    57.6235    43.4146 H            1 ACX801   0.0000
   100 H4D         23.9614    54.9134    42.6612 H            1 ACX801   0.0000
   101 H5D         23.0298    56.1973    40.5055 H            1 ACX801   0.0000
   102 H6D1        21.2397    54.2806    41.0772 H            1 ACX801   0.0000
   103 H6D2        22.6292    53.7645    41.7624 H            1 ACX801   0.0000
   104 H38         20.8547    57.3260    45.2833 H            1 ACX801   0.0000
   105 H39         25.2466    56.6548    44.3814 H            1 ACX801   0.0000
   106 H6D         22.4792    53.0719    39.5988 H            1 ACX801   0.0000
   107 H1E         18.6205    62.5719    42.7243 H            1 ACX801   0.0000
   108 H2E         18.0258    60.9130    44.2433 H            1 ACX801   0.0000
   109 H3E         20.6615    59.8999    44.5502 H            1 ACX801   0.0000
   110 H4E         19.0853    58.1758    43.0681 H            1 ACX801   0.0000
   111 H5E         20.5597    59.8865    41.3698 H            1 ACX801   0.0000
   112 H6E1        19.7191    57.8668    40.4879 H            1 ACX801   0.0000
   113 H6E2        19.0084    59.1219    39.7222 H            1 ACX801   0.0000
   114 H48         20.3830    61.7858    45.3807 H            1 ACX801   0.0000
   115 H49         18.1239    58.7860    45.0438 H            1 ACX801   0.0000
   116 H6E         17.4856    57.5300    40.2677 H            1 ACX801   0.0000
   117 H1F         22.7404    66.1746    40.3884 H            1 ACX801   0.0000
   118 H2F         21.5619    66.3518    42.3330 H            1 ACX801   0.0000
   119 H3F         21.9529    63.8017    43.4614 H            1 ACX801   0.0000
   120 H4F         19.6169    63.8094    41.8787 H            1 ACX801   0.0000
   121 H5F         22.0752    62.9263    40.6792 H            1 ACX801   0.0000
   122 H6F1        20.1072    63.2134    38.7977 H            1 ACX801   0.0000
   123 H6F2        19.4799    62.3262    40.0168 H            1 ACX801   0.0000
   124 H58         23.9800    66.1956    42.4420 H            1 ACX801   0.0000
   125 H59         19.8596    64.2054    44.2929 H            1 ACX801   0.0000
   126 H6F         21.8588    61.7703    38.6488 H            1 ACX801   0.0000
@<TRIPOS>BOND
     1    1    2       1
     2    1    7       1
     3    1   10       1
     4    2    3       1
     5    2    8       1
     6    3    4       1
     7    3    9       1
     8    4    5       1
     9    4   62       1
    10    5    6       1
    11    5   10       1
    12    6   11       1
    13    7   15       1
    14   12   13       1
    15   12   18       1
    16   12   21       1
    17   13   14       1
    18   13   19       1
    19   14   15       1
    20   14   20       1
    21   15   16       1
    22   16   17       1
    23   16   21       1
    24   17   22       1
    25   18   26       1
    26   23   24       1
    27   23   29       1
    28   23   32       1
    29   24   25       1
    30   24   30       1
    31   25   26       1
    32   25   31       1
    33   26   27       1
    34   27   28       1
    35   27   32       1
    36   28   33       1
    37   29   37       1
    38   34   35       1
    39   34   40       1
    40   34   43       1
    41   35   36       1
    42   35   41       1
    43   36   37       1
    44   36   42       1
    45   37   38       1
    46   38   39       1
    47   38   43       1
    48   39   44       1
    49   40   48       1
    50   45   46       1
    51   45   51       1
    52   45   54       1
    53   46   47       1
    54   46   52       1
    55   47   48       1
    56   47   53       1
    57   48   49       1
    58   49   50       1
    59   49   54       1
    60   50   55       1
    61   51   59       1
    62   56   57       1
    63   56   62       1
    64   56   65       1
    65   57   58       1
    66   57   63       1
    67   58   59       1
    68   58   64       1
    69   59   60       1
    70   60   61       1
    71   60   65       1
    72   61   66       1
    73    1   67       1
    74    2   68       1
    75    3   69       1
    76    4   70       1
    77    5   71       1
    78    6   72       1
    79    6   73       1
    80    8   74       1
    81    9   75       1
    82   11   76       1
    83   12   77       1
    84   13   78       1
    85   14   79       1
    86   15   80       1
    87   16   81       1
    88   17   82       1
    89   17   83       1
    90   19   84       1
    91   20   85       1
    92   22   86       1
    93   23   87       1
    94   24   88       1
    95   25   89       1
    96   26   90       1
    97   27   91       1
    98   28   92       1
    99   28   93       1
   100   30   94       1
   101   31   95       1
   102   33   96       1
   103   34   97       1
   104   35   98       1
   105   36   99       1
   106   37  100       1
   107   38  101       1
   108   39  102       1
   109   39  103       1
   110   41  104       1
   111   42  105       1
   112   44  106       1
   113   45  107       1
   114   46  108       1
   115   47  109       1
   116   48  110       1
   117   49  111       1
   118   50  112       1
   119   50  113       1
   120   52  114       1
   121   53  115       1
   122   55  116       1
   123   56  117       1
   124   57  118       1
   125   58  119       1
   126   59  120       1
   127   60  121       1
   128   61  122       1
   129   61  123       1
   130   63  124       1
   131   64  125       1
   132   66  126       1
@<TRIPOS>SUBSTRUCTURE
     1 ACX801      1 GROUP             4 A     ACX     0 **** ACX A 801
