@<TRIPOS>MOLECULE
3tqx_PLP_1_ligand
   25    25     1     0     0
SMALL
NO_CHARGES


@<TRIPOS>ATOM
     1 N1          27.0260    18.1950    25.0680 N.ar         1 PLP397   1.0000
     2 C2          27.0990    17.5680    26.2540 C.ar         1 PLP397   0.0000
     3 C2A         25.8420    17.2710    27.0040 C.3          1 PLP397   0.0000
     4 C3          28.3230    17.1950    26.7890 C.ar         1 PLP397   0.0000
     5 O3          28.3720    16.5540    28.0050 O.3          1 PLP397   0.0000
     6 C4          29.4810    17.4820    26.0740 C.ar         1 PLP397   0.0000
     7 C4A         30.8330    17.1090    26.5930 C.2          1 PLP397   0.0000
     8 O4A         31.0500    17.0470    27.7990 O.2          1 PLP397   0.0000
     9 C5          29.3730    18.1320    24.8530 C.ar         1 PLP397   0.0000
    10 C6          28.1280    18.4840    24.3590 C.ar         1 PLP397   0.0000
    11 C5A         30.5940    18.4560    24.0580 C.3          1 PLP397   0.0000
    12 O4P         31.1910    17.4100    23.3870 O.3          1 PLP397   0.0000
    13 P           32.7100    17.4550    23.0460 P.3          1 PLP397   0.0000
    14 O1P         33.5230    17.3280    24.3140 O.co2        1 PLP397   0.0000
    15 O2P         33.0540    18.7580    22.3640 O.co2        1 PLP397  -1.0000
    16 O3P         33.0240    16.3000    22.1280 O.co2        1 PLP397  -1.0000
    17 H2A1        26.0667    16.8053    27.8600 H            1 PLP397   0.0000
    18 H2A2        25.3640    18.1260    27.2052 H            1 PLP397   0.0000
    19 H2A3        25.2538    16.6828    26.4490 H            1 PLP397   0.0000
    20 H4          27.5263    16.3579    28.5013 H            1 PLP397   0.0000
    21 H4A         31.5703    16.9073    25.9483 H            1 PLP397   0.0000
    22 H6          28.0506    18.9512    23.4783 H            1 PLP397   0.0000
    23 H5A1        31.2714    18.8395    24.6857 H            1 PLP397   0.0000
    24 H5A2        30.3400    19.1456    23.3798 H            1 PLP397   0.0000
    25 H9          26.1302    18.4521    24.7054 H            1 PLP397   0.0000
@<TRIPOS>BOND
     1    1    2      ar
     2    1   10      ar
     3    2    3       1
     4    2    4      ar
     5    4    5       1
     6    4    6      ar
     7    6    7       1
     8    6    9      ar
     9    7    8       2
    10    9   10      ar
    11    9   11       1
    12   11   12       1
    13   12   13       1
    14   13   14      ar
    15   13   15      ar
    16   13   16      ar
    17    3   17       1
    18    3   18       1
    19    3   19       1
    20    5   20       1
    21    7   21       1
    22   10   22       1
    23   11   23       1
    24   11   24       1
    25    1   25       1
@<TRIPOS>SUBSTRUCTURE
     1 PLP397      1 GROUP             4 A     PLP     0 **** PLP A 397
