@<TRIPOS>MOLECULE
2vjm_COA_1_ligand
   80    82     1     0     0
SMALL
NO_CHARGES


@<TRIPOS>ATOM
     1 N1A        -21.1510   -40.6150   -29.5790 N.ar         1 COA1429   0.0000
     2 C2A        -22.4740   -40.5780   -29.9730 C.ar         1 COA1429   0.0000
     3 N3A        -23.4290   -40.0300   -29.1270 N.ar         1 COA1429   0.0000
     4 C4A        -23.0730   -39.5430   -27.9100 C.ar         1 COA1429   0.0000
     5 C5A        -21.7420   -39.5840   -27.4980 C.ar         1 COA1429   0.0000
     6 C6A        -20.7720   -40.1280   -28.3450 C.ar         1 COA1429   0.0000
     7 N6A        -19.4970   -40.2510   -27.9760 N.pl3        1 COA1429   0.0000
     8 N7A        -21.6870   -39.0300   -26.2680 N.2          1 COA1429   0.0000
     9 C8A        -22.9320   -38.6500   -25.8890 C.2          1 COA1429   0.0000
    10 N9A        -23.8040   -38.9640   -26.9020 N.pl3        1 COA1429   0.0000
    11 C1B        -25.2520   -38.6810   -26.9650 C.3          1 COA1429   0.0000
    12 C2B        -26.0400   -39.2360   -25.7870 C.3          1 COA1429   0.0000
    13 O2B        -26.2890   -40.6190   -25.8830 O.3          1 COA1429   0.0000
    14 C3B        -27.2950   -38.3970   -25.8750 C.3          1 COA1429   0.0000
    15 O3B        -28.1600   -38.9680   -26.8270 O.3          1 COA1429   0.0000
    16 P3B        -29.7450   -38.6890   -26.8980 P.3          1 COA1429   0.0000
    17 O7A        -30.3790   -40.0250   -27.1730 O.co2        1 COA1429   0.0000
    18 O8A        -30.2630   -38.1170   -25.6040 O.co2        1 COA1429  -1.0000
    19 O9A        -30.0370   -37.7060   -28.0070 O.co2        1 COA1429  -1.0000
    20 C4B        -26.7960   -37.0520   -26.3850 C.3          1 COA1429   0.0000
    21 O4B        -25.5170   -37.2910   -26.9470 O.3          1 COA1429   0.0000
    22 C5B        -26.6970   -35.9890   -25.2920 C.3          1 COA1429   0.0000
    23 O5B        -26.0810   -36.5250   -24.1400 O.3          1 COA1429   0.0000
    24 P1A        -26.3900   -35.9150   -22.6850 P.3          1 COA1429   0.0000
    25 O1A        -25.6970   -36.7290   -21.6280 O.co2        1 COA1429   0.0000
    26 O2A        -27.8650   -35.7490   -22.4230 O.co2        1 COA1429  -1.0000
    27 O3A        -25.6460   -34.4920   -22.7580 O.3          1 COA1429   0.0000
    28 P2A        -26.3170   -33.0810   -22.3880 P.3          1 COA1429   0.0000
    29 O4A        -27.6180   -32.8660   -23.1230 O.co2        1 COA1429   0.0000
    30 O5A        -25.2850   -32.0250   -22.6930 O.co2        1 COA1429  -1.0000
    31 O6A        -26.6110   -33.0980   -20.8070 O.3          1 COA1429   0.0000
    32 CBP        -25.9800   -33.5880   -18.5350 C.3          1 COA1429   0.0000
    33 CCP        -25.5410   -33.0430   -19.8900 C.3          1 COA1429   0.0000
    34 CDP        -27.0890   -32.6740   -18.0110 C.3          1 COA1429   0.0000
    35 CEP        -24.7860   -33.4990   -17.5890 C.3          1 COA1429   0.0000
    36 CAP        -26.4710   -35.0390   -18.6880 C.3          1 COA1429   0.0000
    37 OAP        -25.4440   -35.8690   -19.2140 O.3          1 COA1429   0.0000
    38 C9P        -27.0090   -35.5880   -17.3900 C.2          1 COA1429   0.0000
    39 O9P        -28.2810   -35.1920   -16.9280 O.2          1 COA1429   0.0000
    40 N8P        -26.2390   -36.4330   -16.7070 N.am         1 COA1429   0.0000
    41 C7P        -26.7290   -37.1320   -15.5330 C.3          1 COA1429   0.0000
    42 C6P        -26.5760   -36.2950   -14.2620 C.3          1 COA1429   0.0000
    43 C5P        -25.1640   -35.7710   -14.1900 C.2          1 COA1429   0.0000
    44 O5P        -24.2070   -36.5540   -14.0710 O.2          1 COA1429   0.0000
    45 N4P        -25.0210   -34.4540   -14.2880 N.am         1 COA1429   0.0000
    46 C3P        -23.6970   -33.8670   -14.2980 C.3          1 COA1429   0.0000
    47 C2P        -23.0880   -33.7740   -12.9100 C.3          1 COA1429   0.0000
    48 S1P        -21.3020   -33.5260   -13.0380 S.3          1 COA1429   0.0000
    49 H2A        -22.7431   -40.9443   -30.8637 H            1 COA1429   0.0000
    50 H6A1       -19.1984   -39.9057   -27.0863 H            1 COA1429   0.0000
    51 H6A2       -18.8391   -40.6886   -28.5889 H            1 COA1429   0.0000
    52 H8A        -23.1736   -38.2158   -25.0212 H            1 COA1429   0.0000
    53 H1B        -25.6198   -39.0685   -27.8103 H            1 COA1429   0.0000
    54 H2B        -25.5586   -39.0369   -24.9334 H            1 COA1429   0.0000
    55 H7         -27.1540   -40.7695   -26.3616 H            1 COA1429   0.0000
    56 H3B        -27.7392   -38.3084   -24.9835 H            1 COA1429   0.0000
    57 H4B        -27.4119   -36.7261   -27.1023 H            1 COA1429   0.0000
    58 H5B1       -27.6156   -35.6711   -25.0571 H            1 COA1429   0.0000
    59 H5B2       -26.1540   -35.2197   -25.6285 H            1 COA1429   0.0000
    60 HCP1       -25.2452   -32.0936   -19.7841 H            1 COA1429   0.0000
    61 HCP2       -24.7806   -33.5924   -20.2364 H            1 COA1429   0.0000
    62 HDP1       -27.4005   -33.0048   -17.1202 H            1 COA1429   0.0000
    63 HDP2       -26.7366   -31.7430   -17.9162 H            1 COA1429   0.0000
    64 HDP3       -27.8548   -32.6767   -18.6540 H            1 COA1429   0.0000
    65 HEP1       -25.0462   -33.8509   -16.6898 H            1 COA1429   0.0000
    66 HEP2       -24.0303   -34.0429   -17.9539 H            1 COA1429   0.0000
    67 HEP3       -24.4990   -32.5449   -17.5033 H            1 COA1429   0.0000
    68 HAP        -27.2224   -35.0348   -19.3478 H            1 COA1429   0.0000
    69 H21        -25.4966   -35.8721   -20.2126 H            1 COA1429   0.0000
    70 H8P        -25.2992   -36.5900   -17.0107 H            1 COA1429   0.0000
    71 H7P1       -26.2127   -37.9815   -15.4242 H            1 COA1429   0.0000
    72 H7P2       -27.6972   -37.3449   -15.6647 H            1 COA1429   0.0000
    73 H6P1       -26.7645   -36.8632   -13.4610 H            1 COA1429   0.0000
    74 H6P2       -27.2178   -35.5285   -14.2854 H            1 COA1429   0.0000
    75 H4P        -25.8281   -33.8674   -14.3549 H            1 COA1429   0.0000
    76 H3P1       -23.7580   -32.9462   -14.6832 H            1 COA1429   0.0000
    77 H3P2       -23.1017   -34.4296   -14.8717 H            1 COA1429   0.0000
    78 H2P1       -23.2703   -34.6208   -12.4104 H            1 COA1429   0.0000
    79 H2P2       -23.4956   -33.0035   -12.4199 H            1 COA1429   0.0000
    80 H1P        -21.0526   -32.6643   -12.5962 H            1 COA1429   0.0000
@<TRIPOS>BOND
     1    1    2      ar
     2    1    6      ar
     3    2    3      ar
     4    3    4      ar
     5    4    5      ar
     6    4   10       1
     7    5    6      ar
     8    5    8       1
     9    6    7       1
    10    8    9       2
    11    9   10       1
    12   10   11       1
    13   11   12       1
    14   11   21       1
    15   12   13       1
    16   12   14       1
    17   14   15       1
    18   14   20       1
    19   15   16       1
    20   16   17      ar
    21   16   18      ar
    22   16   19      ar
    23   20   21       1
    24   20   22       1
    25   22   23       1
    26   23   24       1
    27   24   25      ar
    28   24   26      ar
    29   24   27       1
    30   27   28       1
    31   28   29      ar
    32   28   30      ar
    33   28   31       1
    34   31   33       1
    35   32   33       1
    36   32   34       1
    37   32   35       1
    38   32   36       1
    39   36   37       1
    40   36   38       1
    41   38   39       2
    42   38   40      am
    43   40   41       1
    44   41   42       1
    45   42   43       1
    46   43   44       2
    47   43   45      am
    48   45   46       1
    49   46   47       1
    50   47   48       1
    51    2   49       1
    52    7   50       1
    53    7   51       1
    54    9   52       1
    55   11   53       1
    56   12   54       1
    57   13   55       1
    58   14   56       1
    59   48   80       1
    60   47   79       1
    61   20   57       1
    62   22   58       1
    63   22   59       1
    64   47   78       1
    65   46   77       1
    66   33   60       1
    67   33   61       1
    68   34   62       1
    69   34   63       1
    70   34   64       1
    71   35   65       1
    72   35   66       1
    73   35   67       1
    74   36   68       1
    75   37   69       1
    76   40   70       1
    77   41   71       1
    78   41   72       1
    79   42   73       1
    80   42   74       1
    81   45   75       1
    82   46   76       1
@<TRIPOS>SUBSTRUCTURE
     1 COA1429     1 GROUP             4 B     COA     0 **** COA B1429
