@<TRIPOS>MOLECULE
3l77_NJP_1_ligand
   74    78     1     0     0
SMALL
NO_CHARGES


@<TRIPOS>ATOM
     1 O3         -37.4840   -17.5510   -16.5100 O.3          1 NJP501   0.0000
     2 PA         -37.8560   -18.8860   -17.3300 P.3          1 NJP501   0.0000
     3 PN         -36.6420   -16.2580   -16.9700 P.3          1 NJP501   0.0000
     4 N1A        -29.8680   -25.7050   -14.7870 N.ar         1 NJP501   0.0000
     5 O1A        -38.4560   -19.8050   -16.2900 O.co2        1 NJP501   0.0000
     6 C1B        -33.1270   -22.3850   -16.8420 C.3          1 NJP501   0.0000
     7 C1D        -34.5100   -13.7800   -13.5230 C.3          1 NJP501   0.0000
     8 N1N        -35.6140   -12.8020   -13.4480 N.ar         1 NJP501   1.0000
     9 O1N        -36.0980   -16.3960   -18.3810 O.co2        1 NJP501   0.0000
    10 O1X        -34.3230   -26.0130   -19.7930 O.co2        1 NJP501   0.0000
    11 C2A        -29.7960   -25.0770   -15.9660 C.ar         1 NJP501   0.0000
    12 O2A        -38.6150   -18.5790   -18.5990 O.co2        1 NJP501  -1.0000
    13 C2B        -34.3270   -22.9120   -17.6310 C.3          1 NJP501   0.0000
    14 O2B        -33.9710   -23.9460   -18.5520 O.3          1 NJP501   0.0000
    15 P2B        -34.2530   -25.5310   -18.3640 P.3          1 NJP501   0.0000
    16 C2D        -34.7190   -15.2000   -13.0340 C.3          1 NJP501   0.0000
    17 O2D        -34.5120   -15.2980   -11.6250 O.3          1 NJP501   0.0000
    18 C2N        -36.8740   -13.1520   -13.9800 C.ar         1 NJP501   0.0000
    19 O2N        -37.4820   -15.0590   -16.6180 O.co2        1 NJP501  -1.0000
    20 O2X        -35.5580   -25.6960   -17.6080 O.co2        1 NJP501  -1.0000
    21 N3A        -30.7570   -24.2190   -16.3360 N.ar         1 NJP501   0.0000
    22 C3B        -34.7570   -21.6740   -18.3920 C.3          1 NJP501   0.0000
    23 O3B        -34.0270   -21.5950   -19.6260 O.3          1 NJP501   0.0000
    24 C3D        -33.6410   -15.9400   -13.8160 C.3          1 NJP501   0.0000
    25 O3D        -32.3660   -15.8000   -13.1680 O.3          1 NJP501   0.0000
    26 C3N        -37.9830   -12.3700   -13.6890 C.ar         1 NJP501   0.0000
    27 O3X        -33.0440   -26.0420   -17.6160 O.co2        1 NJP501  -1.0000
    28 C4A        -31.8160   -23.9910   -15.5160 C.ar         1 NJP501   0.0000
    29 C4B        -34.3340   -20.5180   -17.5010 C.3          1 NJP501   0.0000
    30 O4B        -33.4210   -21.0340   -16.5230 O.3          1 NJP501   0.0000
    31 C4D        -33.5430   -15.1700   -15.1280 C.3          1 NJP501   0.0000
    32 O4D        -34.2730   -13.9580   -14.9180 O.3          1 NJP501   0.0000
    33 C4N        -37.8860   -11.3090   -12.7970 C.ar         1 NJP501   0.0000
    34 C5A        -31.9120   -24.6350   -14.2950 C.ar         1 NJP501   0.0000
    35 C5B        -35.5260   -19.9400   -16.7720 C.3          1 NJP501   0.0000
    36 O5B        -36.4310   -19.4750   -17.7690 O.3          1 NJP501   0.0000
    37 C5D        -34.1150   -15.9160   -16.3280 C.3          1 NJP501   0.0000
    38 O5D        -35.4030   -16.3830   -15.9520 O.3          1 NJP501   0.0000
    39 C5N        -36.6740   -10.9940   -12.2160 C.ar         1 NJP501   0.0000
    40 C6A        -30.9050   -25.5200   -13.9410 C.ar         1 NJP501   0.0000
    41 N6A        -30.9500   -26.1870   -12.7560 N.pl3        1 NJP501   0.0000
    42 C6N        -35.5510   -11.7740   -12.4790 C.ar         1 NJP501   0.0000
    43 N7A        -33.0640   -24.2200   -13.7000 N.2          1 NJP501   0.0000
    44 C7N        -39.3130   -12.6400   -14.3220 C.2          1 NJP501   0.0000
    45 N7N        -39.3840   -13.4510   -15.3810 N.am         1 NJP501   0.0000
    46 O7N        -40.2840   -12.0520   -13.8750 O.2          1 NJP501   0.0000
    47 C8A        -33.6590   -23.3380   -14.5440 C.2          1 NJP501   0.0000
    48 O8N        -36.6210    -9.9520   -11.3440 O.3          1 NJP501   0.0000
    49 N9A        -32.8870   -23.2100   -15.6440 N.pl3        1 NJP501   0.0000
    50 H1B        -32.3153   -22.4132   -17.4254 H            1 NJP501   0.0000
    51 H1D        -33.6936   -13.3954   -13.0922 H            1 NJP501   0.0000
    52 H2A        -29.0212   -25.2486   -16.5744 H            1 NJP501   0.0000
    53 H2B        -35.0512   -23.2194   -17.0137 H            1 NJP501   0.0000
    54 H2D        -35.6291   -15.5311   -13.2832 H            1 NJP501   0.0000
    55 H6         -34.6563   -16.2431   -11.3318 H            1 NJP501   0.0000
    56 H2N        -36.9669   -13.9589   -14.5633 H            1 NJP501   0.0000
    57 H3B        -35.7442   -21.6688   -18.5516 H            1 NJP501   0.0000
    58 H9         -34.2151   -22.4079   -20.1772 H            1 NJP501   0.0000
    59 H3D        -33.8804   -16.8996   -13.9640 H            1 NJP501   0.0000
    60 H11        -31.6699   -16.2904   -13.6924 H            1 NJP501   0.0000
    61 H4B        -33.8880   -19.8087   -18.0469 H            1 NJP501   0.0000
    62 H4D        -32.5844   -14.9482   -15.3068 H            1 NJP501   0.0000
    63 H4N        -38.6988   -10.7705   -12.5747 H            1 NJP501   0.0000
    64 H5B1       -35.2377   -19.1814   -16.1877 H            1 NJP501   0.0000
    65 H5B2       -35.9623   -20.6446   -16.2124 H            1 NJP501   0.0000
    66 H5D1       -33.5255   -16.6882   -16.5651 H            1 NJP501   0.0000
    67 H5D2       -34.1886   -15.2998   -17.1121 H            1 NJP501   0.0000
    68 H6A1       -31.7193   -26.0473   -12.1325 H            1 NJP501   0.0000
    69 H6A2       -30.2138   -26.8169   -12.5085 H            1 NJP501   0.0000
    70 H6N        -34.6993   -11.6071   -11.9823 H            1 NJP501   0.0000
    71 H7N1       -40.2680   -13.6369   -15.8100 H            1 NJP501   0.0000
    72 H7N2       -38.5532   -13.8722   -15.7448 H            1 NJP501   0.0000
    73 H8A        -34.5234   -22.8633   -14.3785 H            1 NJP501   0.0000
    74 H8N        -37.4492    -9.4319   -11.1355 H            1 NJP501   0.0000
@<TRIPOS>BOND
     1    1    2       1
     2    1    3       1
     3    2    5      ar
     4    2   12      ar
     5    2   36       1
     6    3    9      ar
     7    3   19      ar
     8    3   38       1
     9    4   11      ar
    10    4   40      ar
    11    6   13       1
    12    6   30       1
    13    6   49       1
    14    7    8       1
    15    7   16       1
    16    7   32       1
    17    8   18      ar
    18    8   42      ar
    19   10   15      ar
    20   11   21      ar
    21   13   14       1
    22   13   22       1
    23   14   15       1
    24   15   20      ar
    25   15   27      ar
    26   16   17       1
    27   16   24       1
    28   18   26      ar
    29   21   28      ar
    30   22   23       1
    31   22   29       1
    32   24   25       1
    33   24   31       1
    34   26   33      ar
    35   26   44       1
    36   28   34      ar
    37   28   49       1
    38   29   30       1
    39   29   35       1
    40   31   32       1
    41   31   37       1
    42   33   39      ar
    43   34   40      ar
    44   34   43       1
    45   35   36       1
    46   37   38       1
    47   39   42      ar
    48   39   48       1
    49   40   41       1
    50   43   47       2
    51   44   45      am
    52   44   46       2
    53   47   49       1
    54   48   74       1
    55    6   50       1
    56    7   51       1
    57   47   73       1
    58   45   72       1
    59   11   52       1
    60   13   53       1
    61   16   54       1
    62   17   55       1
    63   18   56       1
    64   45   71       1
    65   22   57       1
    66   23   58       1
    67   24   59       1
    68   25   60       1
    69   29   61       1
    70   31   62       1
    71   33   63       1
    72   35   64       1
    73   35   65       1
    74   37   66       1
    75   37   67       1
    76   41   68       1
    77   41   69       1
    78   42   70       1
@<TRIPOS>SUBSTRUCTURE
     1 NJP501      1 GROUP             4 A     NJP     0 **** NJP A 501
