@<TRIPOS>MOLECULE
3cwq_ADP_1_ligand
   39    41     1     0     0
SMALL
NO_CHARGES


@<TRIPOS>ATOM
     1 PB          62.6810    28.6490    74.2050 P.3          1 ADP301   0.0000
     2 O1B         64.0880    28.2900    73.8490 O.co2        1 ADP301   0.0000
     3 O2B         61.9170    28.8930    72.8500 O.co2        1 ADP301  -1.0000
     4 O3B         62.8390    29.7800    75.1170 O.co2        1 ADP301  -1.0000
     5 PA          62.9370    27.2810    76.7730 P.3          1 ADP301   0.0000
     6 O1A         63.8610    26.1010    76.5870 O.co2        1 ADP301   0.0000
     7 O2A         63.4970    28.4480    77.5500 O.co2        1 ADP301  -1.0000
     8 O3A         62.1590    27.6970    75.3490 O.3          1 ADP301   0.0000
     9 O5'         61.6560    26.5710    77.4580 O.3          1 ADP301   0.0000
    10 C5'         61.2480    27.1410    78.6920 C.3          1 ADP301   0.0000
    11 C4'         60.8070    26.1220    79.7420 C.3          1 ADP301   0.0000
    12 O4'         60.2800    24.9250    79.1580 O.3          1 ADP301   0.0000
    13 C3'         62.0420    25.7320    80.5360 C.3          1 ADP301   0.0000
    14 O3'         61.8350    26.0750    81.9190 O.3          1 ADP301   0.0000
    15 C2'         62.1280    24.2390    80.5050 C.3          1 ADP301   0.0000
    16 O2'         61.8900    23.7620    81.8550 O.3          1 ADP301   0.0000
    17 C1'         60.8830    23.7840    79.7840 C.3          1 ADP301   0.0000
    18 N9          61.2730    22.6960    78.8840 N.pl3        1 ADP301   0.0000
    19 C8          61.9280    22.8000    77.7230 C.2          1 ADP301   0.0000
    20 N7          62.0270    21.5700    77.1910 N.2          1 ADP301   0.0000
    21 C5          61.4520    20.6720    77.9860 C.ar         1 ADP301   0.0000
    22 C6          61.2550    19.2400    78.0050 C.ar         1 ADP301   0.0000
    23 N6          61.7280    18.4580    77.0220 N.pl3        1 ADP301   0.0000
    24 N1          60.6210    18.6870    79.0520 N.ar         1 ADP301   0.0000
    25 C2          60.1880    19.4230    80.0530 C.ar         1 ADP301   0.0000
    26 N3          60.3340    20.7420    80.0870 N.ar         1 ADP301   0.0000
    27 C4          60.9710    21.4120    79.1120 C.ar         1 ADP301   0.0000
    28 H5'1        60.4815    27.7580    78.5135 H            1 ADP301   0.0000
    29 H5'2        62.0156    27.6623    79.0649 H            1 ADP301   0.0000
    30 H4'         60.1270    26.5321    80.3498 H            1 ADP301   0.0000
    31 H3'         62.8685    26.1583    80.1684 H            1 ADP301   0.0000
    32 H5          62.5356    26.7268    82.2093 H            1 ADP301   0.0000
    33 H2'         62.9750    23.8939    80.1006 H            1 ADP301   0.0000
    34 H7          61.7300    24.5415    82.4606 H            1 ADP301   0.0000
    35 H1'         60.2424    23.4198    80.4600 H            1 ADP301   0.0000
    36 H9          62.2820    23.6446    77.3212 H            1 ADP301   0.0000
    37 H10         61.5805    17.4695    77.0547 H            1 ADP301   0.0000
    38 H11         62.2279    18.8639    76.2569 H            1 ADP301   0.0000
    39 H12         59.7307    18.9707    80.8187 H            1 ADP301   0.0000
@<TRIPOS>BOND
     1    1    2      ar
     2    1    3      ar
     3    1    4      ar
     4    1    8       1
     5    5    6      ar
     6    5    7      ar
     7    5    8       1
     8    5    9       1
     9    9   10       1
    10   10   11       1
    11   11   12       1
    12   11   13       1
    13   12   17       1
    14   13   14       1
    15   13   15       1
    16   15   16       1
    17   15   17       1
    18   17   18       1
    19   18   19       1
    20   18   27       1
    21   19   20       2
    22   20   21       1
    23   21   22      ar
    24   21   27      ar
    25   22   23       1
    26   22   24      ar
    27   24   25      ar
    28   25   26      ar
    29   26   27      ar
    30   25   39       1
    31   23   38       1
    32   23   37       1
    33   10   28       1
    34   10   29       1
    35   11   30       1
    36   13   31       1
    37   14   32       1
    38   15   33       1
    39   16   34       1
    40   17   35       1
    41   19   36       1
@<TRIPOS>SUBSTRUCTURE
     1 ADP301      1 GROUP             4 A     ADP     0 **** ADP A 301
