@<TRIPOS>MOLECULE
2qjo_NAD_4_ligand
   70    74     1     0     0
SMALL
NO_CHARGES


@<TRIPOS>ATOM
     1 PA         -92.4780    19.2910   -23.8920 P.3          1 NAD601   0.0000
     2 O1A        -93.5380    20.3200   -24.0720 O.co2        1 NAD601   0.0000
     3 O2A        -91.1450    19.7750   -23.6410 O.co2        1 NAD601  -1.0000
     4 O5B        -92.4830    18.3270   -25.1680 O.3          1 NAD601   0.0000
     5 C5B        -93.7240    17.7880   -25.5650 C.3          1 NAD601   0.0000
     6 C4B        -93.4780    16.5530   -26.4340 C.3          1 NAD601   0.0000
     7 O4B        -93.1140    16.9970   -27.7420 O.3          1 NAD601   0.0000
     8 C3B        -92.3350    15.6890   -25.9000 C.3          1 NAD601   0.0000
     9 O3B        -92.4690    14.3420   -26.2890 O.3          1 NAD601   0.0000
    10 C2B        -91.1980    16.2250   -26.7070 C.3          1 NAD601   0.0000
    11 O2B        -90.1960    15.2580   -26.7220 O.3          1 NAD601   0.0000
    12 C1B        -91.8630    16.4700   -28.0530 C.3          1 NAD601   0.0000
    13 N9A        -91.0370    17.4210   -28.7810 N.pl3        1 NAD601   0.0000
    14 C8A        -90.6790    18.6810   -28.3920 C.2          1 NAD601   0.0000
    15 N7A        -89.8670    19.1960   -29.3300 N.2          1 NAD601   0.0000
    16 C5A        -89.6970    18.2870   -30.3170 C.ar         1 NAD601   0.0000
    17 C6A        -88.9530    18.3060   -31.5000 C.ar         1 NAD601   0.0000
    18 N6A        -88.1480    19.3360   -31.7900 N.pl3        1 NAD601   0.0000
    19 N1A        -88.9770    17.1930   -32.3160 N.ar         1 NAD601   0.0000
    20 C2A        -89.7320    16.0830   -31.9630 C.ar         1 NAD601   0.0000
    21 N3A        -90.4620    16.0750   -30.7840 N.ar         1 NAD601   0.0000
    22 C4A        -90.4370    17.1610   -29.9830 C.ar         1 NAD601   0.0000
    23 O3         -93.0580    18.3990   -22.6670 O.3          1 NAD601   0.0000
    24 PN         -92.2700    17.5310   -21.5730 P.3          1 NAD601   0.0000
    25 O1N        -91.3590    18.4020   -20.7780 O.co2        1 NAD601   0.0000
    26 O2N        -91.7940    16.2540   -22.1030 O.co2        1 NAD601  -1.0000
    27 O5D        -93.6320    17.2450   -20.7340 O.3          1 NAD601   0.0000
    28 C5D        -93.7120    16.3100   -19.6580 C.3          1 NAD601   0.0000
    29 C4D        -94.7220    16.8290   -18.6460 C.3          1 NAD601   0.0000
    30 O4D        -95.0700    15.8560   -17.6670 O.3          1 NAD601   0.0000
    31 C3D        -94.1230    17.9520   -17.8620 C.3          1 NAD601   0.0000
    32 O3D        -95.2440    18.7200   -17.4730 O.3          1 NAD601   0.0000
    33 C2D        -93.5150    17.2500   -16.6830 C.3          1 NAD601   0.0000
    34 O2D        -93.4210    18.1460   -15.6020 O.3          1 NAD601   0.0000
    35 C1D        -94.5720    16.1920   -16.3950 C.3          1 NAD601   0.0000
    36 N1N        -93.9740    15.0680   -15.6550 N.ar         1 NAD601   1.0000
    37 C2N        -94.2230    15.0020   -14.3030 C.ar         1 NAD601   0.0000
    38 C3N        -93.6530    13.9820   -13.5280 C.ar         1 NAD601   0.0000
    39 C7N        -93.8400    14.0450   -12.0370 C.2          1 NAD601   0.0000
    40 O7N        -94.6270    15.0910   -11.5370 O.2          1 NAD601   0.0000
    41 N7N        -93.3060    13.1560   -11.2010 N.am         1 NAD601   0.0000
    42 C4N        -92.8360    13.0180   -14.1520 C.ar         1 NAD601   0.0000
    43 C5N        -92.5990    13.0770   -15.5350 C.ar         1 NAD601   0.0000
    44 C6N        -93.1650    14.1210   -16.2730 C.ar         1 NAD601   0.0000
    45 H5B1       -94.2332    18.4705   -26.0894 H            1 NAD601   0.0000
    46 H5B2       -94.2508    17.5285   -24.7556 H            1 NAD601   0.0000
    47 H4B        -94.3145    16.0076   -26.4859 H            1 NAD601   0.0000
    48 H3B        -92.1957    15.7960   -24.9155 H            1 NAD601   0.0000
    49 H5         -93.3297    13.9767   -25.9344 H            1 NAD601   0.0000
    50 H2B        -90.8590    17.0814   -26.3175 H            1 NAD601   0.0000
    51 H7         -90.6085    14.3495   -26.6547 H            1 NAD601   0.0000
    52 H1B        -91.9549    15.6155   -28.5642 H            1 NAD601   0.0000
    53 H8A        -90.9712    19.1406   -27.5533 H            1 NAD601   0.0000
    54 H6A1       -87.6219    19.3354   -32.6404 H            1 NAD601   0.0000
    55 H6A2       -88.0730    20.1058   -31.1562 H            1 NAD601   0.0000
    56 H2A        -89.7496    15.2834   -32.5632 H            1 NAD601   0.0000
    57 H5D1       -92.8160    16.2171   -19.2239 H            1 NAD601   0.0000
    58 H5D2       -94.0082    15.4201   -20.0050 H            1 NAD601   0.0000
    59 H4D        -95.5447    17.1452   -19.1184 H            1 NAD601   0.0000
    60 H3D        -93.4547    18.4789   -18.3871 H            1 NAD601   0.0000
    61 H17        -94.9392    19.5061   -16.9352 H            1 NAD601   0.0000
    62 H2D        -92.6301    16.8419   -16.9074 H            1 NAD601   0.0000
    63 H19        -94.2580    18.0996   -15.0568 H            1 NAD601   0.0000
    64 H1D        -95.3052    16.5962   -15.8482 H            1 NAD601   0.0000
    65 H2N        -94.8130    15.6845   -13.8715 H            1 NAD601   0.0000
    66 H7N1       -93.4592    13.2406   -10.2164 H            1 NAD601   0.0000
    67 H7N2       -92.7519    12.4040   -11.5580 H            1 NAD601   0.0000
    68 H4N        -92.4229    12.2882   -13.6072 H            1 NAD601   0.0000
    69 H5N        -92.0350    12.3841   -15.9843 H            1 NAD601   0.0000
    70 H6N        -92.9863    14.1872   -17.2547 H            1 NAD601   0.0000
@<TRIPOS>BOND
     1    1    2      ar
     2    1    3      ar
     3    1    4       1
     4    1   23       1
     5    4    5       1
     6    5    6       1
     7    6    7       1
     8    6    8       1
     9    7   12       1
    10    8    9       1
    11    8   10       1
    12   10   11       1
    13   10   12       1
    14   12   13       1
    15   13   14       1
    16   13   22       1
    17   14   15       2
    18   15   16       1
    19   16   17      ar
    20   16   22      ar
    21   17   18       1
    22   17   19      ar
    23   19   20      ar
    24   20   21      ar
    25   21   22      ar
    26   23   24       1
    27   24   25      ar
    28   24   26      ar
    29   24   27       1
    30   27   28       1
    31   28   29       1
    32   29   30       1
    33   29   31       1
    34   30   35       1
    35   31   32       1
    36   31   33       1
    37   33   34       1
    38   33   35       1
    39   35   36       1
    40   36   37      ar
    41   36   44      ar
    42   37   38      ar
    43   38   39       1
    44   38   42      ar
    45   39   40       2
    46   39   41      am
    47   42   43      ar
    48   43   44      ar
    49   44   70       1
    50    5   45       1
    51    5   46       1
    52    6   47       1
    53    8   48       1
    54    9   49       1
    55   10   50       1
    56   11   51       1
    57   12   52       1
    58   14   53       1
    59   18   54       1
    60   18   55       1
    61   20   56       1
    62   43   69       1
    63   28   57       1
    64   28   58       1
    65   29   59       1
    66   31   60       1
    67   32   61       1
    68   33   62       1
    69   34   63       1
    70   35   64       1
    71   37   65       1
    72   41   66       1
    73   41   67       1
    74   42   68       1
@<TRIPOS>SUBSTRUCTURE
     1 NAD601      1 GROUP             4 A     NAD     0 **** NAD A 601
