@<TRIPOS>MOLECULE
3uf6_COD_1_ligand
   39    41     1     0     0
SMALL
NO_CHARGES


@<TRIPOS>ATOM
     1 N1          -7.5790    37.5990    61.4670 N.ar         1 COD289   0.0000
     2 C2          -7.8230    36.4770    60.7950 C.ar         1 COD289   0.0000
     3 N3          -8.3610    36.5100    59.5630 N.ar         1 COD289   0.0000
     4 C4          -8.6670    37.6920    58.9650 C.ar         1 COD289   0.0000
     5 C5          -8.4270    38.8740    59.6370 C.ar         1 COD289   0.0000
     6 C6          -7.8690    38.7990    60.9230 C.ar         1 COD289   0.0000
     7 N7          -7.6030    40.0380    61.6710 N.pl3        1 COD289   0.0000
     8 N8          -8.8200    39.8910    58.8390 N.2          1 COD289   0.0000
     9 C9          -9.2910    39.3730    57.6970 C.2          1 COD289   0.0000
    10 N10         -9.2080    38.0480    57.7650 N.pl3        1 COD289   0.0000
    11 C11         -9.6070    37.1300    56.6980 C.3          1 COD289   0.0000
    12 C12        -10.8010    37.5910    55.9370 C.3          1 COD289   0.0000
    13 O13        -11.9560    36.9050    56.4140 O.3          1 COD289   0.0000
    14 C14        -10.5790    37.2190    54.6260 C.3          1 COD289   0.0000
    15 O15        -11.3040    36.0020    54.3680 O.3          1 COD289   0.0000
    16 C16         -9.1270    36.9470    54.5050 C.3          1 COD289   0.0000
    17 O17         -8.5890    36.9920    55.7850 O.3          1 COD289   0.0000
    18 C18         -8.4760    37.9570    53.6590 C.3          1 COD289   0.0000
    19 O19         -9.0660    39.2280    53.5680 O.3          1 COD289   0.0000
    20 P20         -8.2410    40.5020    53.8160 P.3          1 COD289   0.0000
    21 O21         -8.6050    41.5740    52.7280 O.co2        1 COD289   0.0000
    22 O22         -6.7040    40.1630    53.7640 O.co2        1 COD289  -1.0000
    23 O23         -8.6180    41.0740    55.2370 O.3          1 COD289   0.0000
    24 P24         -7.9760    42.4460    55.7970 P.3          1 COD289   0.0000
    25 O25         -9.0400    43.2810    56.3810 O.co2        1 COD289   0.0000
    26 O26         -7.3180    43.1870    54.6720 O.co2        1 COD289  -1.0000
    27 O27         -6.8770    42.0880    56.9330 O.co2        1 COD289  -1.0000
    28 H1          -7.6029    35.5954    61.2125 H            1 COD289   0.0000
    29 H2          -7.8199    40.9248    61.2629 H            1 COD289   0.0000
    30 H3          -7.2053    39.9932    62.5874 H            1 COD289   0.0000
    31 H4          -9.6460    39.8961    56.9222 H            1 COD289   0.0000
    32 H5          -9.8050    36.2355    57.0987 H            1 COD289   0.0000
    33 H6         -10.9149    38.5815    56.0142 H            1 COD289   0.0000
    34 H7         -12.0822    37.1009    57.3865 H            1 COD289   0.0000
    35 H8         -10.8606    37.9431    53.9964 H            1 COD289   0.0000
    36 H9         -11.5709    35.9708    53.4048 H            1 COD289   0.0000
    37 H10         -8.9864    36.0380    54.1126 H            1 COD289   0.0000
    38 H11         -8.4322    37.5837    52.7323 H            1 COD289   0.0000
    39 H12         -7.5488    38.0853    54.0109 H            1 COD289   0.0000
@<TRIPOS>BOND
     1    1    2      ar
     2    1    6      ar
     3    2    3      ar
     4    3    4      ar
     5    4    5      ar
     6    4   10       1
     7    5    6      ar
     8    5    8       1
     9    6    7       1
    10    8    9       2
    11    9   10       1
    12   10   11       1
    13   11   12       1
    14   11   17       1
    15   12   13       1
    16   12   14       1
    17   14   15       1
    18   14   16       1
    19   16   17       1
    20   16   18       1
    21   18   19       1
    22   19   20       1
    23   20   21      ar
    24   20   22      ar
    25   20   23       1
    26   23   24       1
    27   24   25      ar
    28   24   26      ar
    29   24   27      ar
    30    2   28       1
    31    7   29       1
    32    7   30       1
    33    9   31       1
    34   11   32       1
    35   12   33       1
    36   13   34       1
    37   14   35       1
    38   15   36       1
    39   16   37       1
    40   18   38       1
    41   18   39       1
@<TRIPOS>SUBSTRUCTURE
     1 COD289      1 GROUP             4 A     COD     0 **** COD A 289
