@<TRIPOS>MOLECULE
2ior_ADP_1_ligand
   39    41     1     0     0
SMALL
NO_CHARGES


@<TRIPOS>ATOM
     1 PB          14.4680    24.6460    -1.1350 P.3          1 ADP1000   0.0000
     2 O1B         15.5420    25.5690    -0.5820 O.co2        1 ADP1000   0.0000
     3 O2B         14.6320    24.4940    -2.6380 O.co2        1 ADP1000  -1.0000
     4 O3B         14.5230    23.2790    -0.4330 O.co2        1 ADP1000  -1.0000
     5 PA          12.6480    26.7580    -0.3780 P.3          1 ADP1000   0.0000
     6 O1A         13.5050    27.1250     0.7520 O.co2        1 ADP1000   0.0000
     7 O2A         11.1640    26.8710    -0.0850 O.co2        1 ADP1000  -1.0000
     8 O3A         12.9640    25.2290    -0.8260 O.3          1 ADP1000   0.0000
     9 O5'         13.0500    27.5880    -1.6670 O.3          1 ADP1000   0.0000
    10 C5'         12.4130    27.2830    -2.8880 C.3          1 ADP1000   0.0000
    11 C4'         13.2170    27.7970    -4.0710 C.3          1 ADP1000   0.0000
    12 O4'         13.0960    29.1910    -4.1850 O.3          1 ADP1000   0.0000
    13 C3'         14.7000    27.5250    -3.9760 C.3          1 ADP1000   0.0000
    14 O3'         15.0510    26.2210    -4.3470 O.3          1 ADP1000   0.0000
    15 C2'         15.2590    28.5800    -4.8970 C.3          1 ADP1000   0.0000
    16 O2'         15.1660    28.1590    -6.2510 O.3          1 ADP1000   0.0000
    17 C1'         14.3070    29.7410    -4.6920 C.3          1 ADP1000   0.0000
    18 N9          14.8060    30.7110    -3.7160 N.pl3        1 ADP1000   0.0000
    19 C8          14.3960    30.8880    -2.4140 C.2          1 ADP1000   0.0000
    20 N7          15.1180    31.8910    -1.8810 N.2          1 ADP1000   0.0000
    21 C5          15.9890    32.3630    -2.8210 C.ar         1 ADP1000   0.0000
    22 C6          16.9640    33.3740    -2.8190 C.ar         1 ADP1000   0.0000
    23 N6          17.3340    34.0450    -1.7170 N.pl3        1 ADP1000   0.0000
    24 N1          17.6670    33.5410    -3.9960 N.ar         1 ADP1000   0.0000
    25 C2          17.4260    32.7760    -5.1060 C.ar         1 ADP1000   0.0000
    26 N3          16.4760    31.7830    -5.1210 N.ar         1 ADP1000   0.0000
    27 C4          15.7790    31.6150    -3.9770 C.ar         1 ADP1000   0.0000
    28 H5'1        11.5081    27.7086    -2.8990 H            1 ADP1000   0.0000
    29 H5'2        12.3157    26.2908    -2.9662 H            1 ADP1000   0.0000
    30 H4'         12.8656    27.3745    -4.9064 H            1 ADP1000   0.0000
    31 H3'         15.0111    27.7002    -3.0419 H            1 ADP1000   0.0000
    32 H5          15.0254    25.6273    -3.5427 H            1 ADP1000   0.0000
    33 H2'         16.1968    28.8246    -4.6508 H            1 ADP1000   0.0000
    34 H7          15.6850    27.3130    -6.3734 H            1 ADP1000   0.0000
    35 H1'         14.1337    30.1964    -5.5653 H            1 ADP1000   0.0000
    36 H9          13.6854    30.3628    -1.9457 H            1 ADP1000   0.0000
    37 H10         18.0348    34.7559    -1.7762 H            1 ADP1000   0.0000
    38 H11         16.9088    33.8340    -0.8368 H            1 ADP1000   0.0000
    39 H12         17.9598    32.9458    -5.9344 H            1 ADP1000   0.0000
@<TRIPOS>BOND
     1    1    2      ar
     2    1    3      ar
     3    1    4      ar
     4    1    8       1
     5    5    6      ar
     6    5    7      ar
     7    5    8       1
     8    5    9       1
     9    9   10       1
    10   10   11       1
    11   11   12       1
    12   11   13       1
    13   12   17       1
    14   13   14       1
    15   13   15       1
    16   15   16       1
    17   15   17       1
    18   17   18       1
    19   18   19       1
    20   18   27       1
    21   19   20       2
    22   20   21       1
    23   21   22      ar
    24   21   27      ar
    25   22   23       1
    26   22   24      ar
    27   24   25      ar
    28   25   26      ar
    29   26   27      ar
    30   25   39       1
    31   23   38       1
    32   23   37       1
    33   10   28       1
    34   10   29       1
    35   11   30       1
    36   13   31       1
    37   14   32       1
    38   15   33       1
    39   16   34       1
    40   17   35       1
    41   19   36       1
@<TRIPOS>SUBSTRUCTURE
     1 ADP1000     1 GROUP             4 A     ADP     0 **** ADP A1000
