@<TRIPOS>MOLECULE
1gve_NAP_1_ligand
   73    77     1     0     0
SMALL
NO_CHARGES


@<TRIPOS>ATOM
     1 PA          25.4310     9.3710     8.8140 P.3          1 NAP1328   0.0000
     2 O1A         25.1820     8.9350    10.2240 O.co2        1 NAP1328   0.0000
     3 O2A         25.0150    10.7540     8.4100 O.co2        1 NAP1328  -1.0000
     4 O5B         24.6900     8.2650     7.9200 O.3          1 NAP1328   0.0000
     5 C5B         24.5360     8.4960     6.5380 C.3          1 NAP1328   0.0000
     6 C4B         23.2360     7.9030     6.0210 C.3          1 NAP1328   0.0000
     7 O4B         22.0950     8.6020     6.5410 O.3          1 NAP1328   0.0000
     8 C3B         23.0860     7.9900     4.4930 C.3          1 NAP1328   0.0000
     9 O3B         23.7880     6.9600     3.8460 O.3          1 NAP1328   0.0000
    10 C2B         21.5780     7.8910     4.3570 C.3          1 NAP1328   0.0000
    11 O2B         21.0820     6.5540     4.5730 O.3          1 NAP1328   0.0000
    12 C1B         21.1020     8.7160     5.5300 C.3          1 NAP1328   0.0000
    13 N9A         21.0620    10.1460     5.1800 N.pl3        1 NAP1328   0.0000
    14 C8A         22.1000    11.0340     5.1400 C.2          1 NAP1328   0.0000
    15 N7A         21.6380    12.2310     4.7420 N.2          1 NAP1328   0.0000
    16 C5A         20.3270    12.1200     4.5310 C.ar         1 NAP1328   0.0000
    17 C6A         19.2770    13.0070     4.0720 C.ar         1 NAP1328   0.0000
    18 N6A         19.5280    14.2720     3.7100 N.pl3        1 NAP1328   0.0000
    19 N1A         18.0370    12.5130     3.9490 N.ar         1 NAP1328   0.0000
    20 C2A         17.7260    11.2150     4.2170 C.ar         1 NAP1328   0.0000
    21 N3A         18.6600    10.3380     4.6440 N.ar         1 NAP1328   0.0000
    22 C4A         19.9400    10.7540     4.7920 C.ar         1 NAP1328   0.0000
    23 O3          26.9660     9.2250     8.4190 O.3          1 NAP1328   0.0000
    24 PN          27.8790     7.9600     8.1210 P.3          1 NAP1328   0.0000
    25 O1N         27.8290     7.7950     6.6340 O.co2        1 NAP1328   0.0000
    26 O2N         27.4850     6.7420     8.8530 O.co2        1 NAP1328  -1.0000
    27 O5D         29.3370     8.5370     8.3990 O.3          1 NAP1328   0.0000
    28 C5D         29.7590     9.4870     7.4390 C.3          1 NAP1328   0.0000
    29 C4D         31.1530     9.0840     6.9930 C.3          1 NAP1328   0.0000
    30 O4D         31.8890     8.7780     8.1920 O.3          1 NAP1328   0.0000
    31 C3D         31.2990     7.9100     6.0450 C.3          1 NAP1328   0.0000
    32 O3D         31.1850     8.2230     4.6590 O.3          1 NAP1328   0.0000
    33 C2D         32.7290     7.5390     6.3580 C.3          1 NAP1328   0.0000
    34 O2D         33.5960     8.4040     5.6430 O.3          1 NAP1328   0.0000
    35 C1D         32.9410     7.9080     7.8340 C.3          1 NAP1328   0.0000
    36 N1N         32.7880     6.8120     8.7190 N.ar         1 NAP1328   1.0000
    37 C2N         33.8620     6.2090     9.3740 C.ar         1 NAP1328   0.0000
    38 C3N         33.7150     4.9960    10.1310 C.ar         1 NAP1328   0.0000
    39 C7N         34.8220     4.5140    10.8940 C.2          1 NAP1328   0.0000
    40 O7N         34.7300     3.3470    11.5090 O.2          1 NAP1328   0.0000
    41 N7N         35.9650     5.3160    10.9500 N.am         1 NAP1328   0.0000
    42 C4N         32.4410     4.3460    10.1910 C.ar         1 NAP1328   0.0000
    43 C5N         31.2810     4.9550     9.5860 C.ar         1 NAP1328   0.0000
    44 C6N         31.5590     6.1140     8.7430 C.ar         1 NAP1328   0.0000
    45 P2B         20.6120     5.5900     3.3570 P.3          1 NAP1328   0.0000
    46 O1X         21.8840     5.0690     2.7420 O.co2        1 NAP1328   0.0000
    47 O2X         19.8900     4.4630     4.0580 O.co2        1 NAP1328  -1.0000
    48 O3X         19.8760     6.4460     2.3190 O.co2        1 NAP1328  -1.0000
    49 H5B1        25.3019     8.0770     6.0503 H            1 NAP1328   0.0000
    50 H5B2        24.5336     9.4819     6.3707 H            1 NAP1328   0.0000
    51 H4B         23.1835     6.9437     6.2985 H            1 NAP1328   0.0000
    52 H3B         23.4031     8.8804     4.1664 H            1 NAP1328   0.0000
    53 H5          23.1494     6.4053     3.3126 H            1 NAP1328   0.0000
    54 H2B         21.2597     8.2673     3.4869 H            1 NAP1328   0.0000
    55 H1B         20.2125     8.3986     5.8587 H            1 NAP1328   0.0000
    56 H8A         23.0507    10.8261     5.3700 H            1 NAP1328   0.0000
    57 H6A1        18.7820    14.8600     3.3974 H            1 NAP1328   0.0000
    58 H6A2        20.4614    14.6284     3.7524 H            1 NAP1328   0.0000
    59 H2A         16.7836    10.9036     4.0948 H            1 NAP1328   0.0000
    60 H5D1        29.7800    10.4000     7.8464 H            1 NAP1328   0.0000
    61 H5D2        29.1351     9.4850     6.6575 H            1 NAP1328   0.0000
    62 H4D         31.5807     9.8800     6.5646 H            1 NAP1328   0.0000
    63 H3D         30.6755     7.1695     6.2958 H            1 NAP1328   0.0000
    64 H16         30.2285     8.1462     4.3775 H            1 NAP1328   0.0000
    65 H2D         32.9199     6.5744     6.1762 H            1 NAP1328   0.0000
    66 H18         34.4446     8.5254     6.1578 H            1 NAP1328   0.0000
    67 H1D         33.8282     8.3501     7.9659 H            1 NAP1328   0.0000
    68 H2N         34.7647     6.6351     9.3149 H            1 NAP1328   0.0000
    69 H7N1        36.7620     5.0148    11.4735 H            1 NAP1328   0.0000
    70 H7N2        35.9859     6.1911    10.4665 H            1 NAP1328   0.0000
    71 H4N         32.3543     3.4644    10.6550 H            1 NAP1328   0.0000
    72 H5N         30.3546     4.6085     9.7334 H            1 NAP1328   0.0000
    73 H6N         30.8290     6.4367     8.1405 H            1 NAP1328   0.0000
@<TRIPOS>BOND
     1    1    2      ar
     2    1    3      ar
     3    1    4       1
     4    1   23       1
     5    4    5       1
     6    5    6       1
     7    6    7       1
     8    6    8       1
     9    7   12       1
    10    8    9       1
    11    8   10       1
    12   10   11       1
    13   10   12       1
    14   11   45       1
    15   12   13       1
    16   13   14       1
    17   13   22       1
    18   14   15       2
    19   15   16       1
    20   16   17      ar
    21   16   22      ar
    22   17   18       1
    23   17   19      ar
    24   19   20      ar
    25   20   21      ar
    26   21   22      ar
    27   23   24       1
    28   24   25      ar
    29   24   26      ar
    30   24   27       1
    31   27   28       1
    32   28   29       1
    33   29   30       1
    34   29   31       1
    35   30   35       1
    36   31   32       1
    37   31   33       1
    38   33   34       1
    39   33   35       1
    40   35   36       1
    41   36   37      ar
    42   36   44      ar
    43   37   38      ar
    44   38   39       1
    45   38   42      ar
    46   39   40       2
    47   39   41      am
    48   42   43      ar
    49   43   44      ar
    50   45   46      ar
    51   45   47      ar
    52   45   48      ar
    53   43   72       1
    54    5   49       1
    55    5   50       1
    56    6   51       1
    57    8   52       1
    58    9   53       1
    59   10   54       1
    60   12   55       1
    61   14   56       1
    62   18   57       1
    63   18   58       1
    64   20   59       1
    65   44   73       1
    66   28   60       1
    67   28   61       1
    68   29   62       1
    69   31   63       1
    70   32   64       1
    71   33   65       1
    72   34   66       1
    73   35   67       1
    74   37   68       1
    75   41   69       1
    76   41   70       1
    77   42   71       1
@<TRIPOS>SUBSTRUCTURE
     1 NAP1328     1 GROUP             4 A     NAP     0 **** NAP A1328
