@<TRIPOS>MOLECULE
./coach420/1oxv/ligand.pdb
 31 31 0 0 0
SMALL
GASTEIGER

@<TRIPOS>ATOM
      1 MG         11.1160   58.2750   64.1550 Mg    1102  MG1102      0.0000
      2  O1G        8.8260   59.8660   61.3750 O.3   1104  ANP1104     0.0000
      3  O2G       10.3980   58.6250   59.8790 O.3   1104  ANP1104     0.0000
      4  O3G       10.3260   58.1870   62.2540 O.3   1104  ANP1104     0.0000
      5  PB        11.6450   61.2410   62.8120 P.3   1104  ANP1104     0.0000
      6  O1B       10.6720   62.3410   62.9590 O.2   1104  ANP1104     0.0000
      7  O2B       11.5780   60.3060   63.9640 O.3   1104  ANP1104     0.0000
      8  N3B       11.3400   60.4240   61.3890 N.3   1104  ANP1104     0.0000
      9  PA        14.3890   61.5190   63.2920 P.3   1104  ANP1104     0.0000
     10  O1A       14.4140   62.1800   64.6260 O.3   1104  ANP1104    -0.5000
     11  O2A       14.6950   60.0870   63.4240 O.2   1104  ANP1104    -0.5000
     12  O3A       13.0540   61.8700   62.5900 O.3   1104  ANP1104     0.0000
     13  O5'       15.5310   62.1310   62.4960 O.3   1104  ANP1104     0.0000
     14  C5'       15.5740   63.5340   62.4120 C.3   1104  ANP1104     0.0000
     15  C4'       16.6680   64.0120   61.4490 C.3   1104  ANP1104     0.0000
     16  O4'       17.9310   63.7170   62.0120 O.3   1104  ANP1104     0.0000
     17  C3'       16.7110   63.3030   60.1060 C.3   1104  ANP1104     0.0000
     18  O3'       17.2710   64.1800   59.1320 O.3   1104  ANP1104     0.0000
     19  C2'       17.6420   62.1340   60.3320 C.3   1104  ANP1104     0.0000
     20  O2'       18.3020   61.6860   59.1600 O.3   1104  ANP1104     0.0000
     21  C1'       18.6540   62.7340   61.2830 C.3   1104  ANP1104     0.0000
     22  N9        19.2420   61.7690   62.2090 N.ar  1104  ANP1104     0.0000
     23  C8        18.6250   61.1500   63.2400 C.ar  1104  ANP1104     0.0000
     24  N7        19.5070   60.3520   63.9000 N.ar  1104  ANP1104     0.0000
     25  C5        20.6970   60.4820   63.2880 C.ar  1104  ANP1104     0.0000
     26  C6        22.0560   59.9310   63.4560 C.ar  1104  ANP1104     0.0000
     27  N6        22.3380   59.0320   64.4840 N.pl3 1104  ANP1104     0.0000
     28  N1        23.0040   60.3330   62.5990 N.ar  1104  ANP1104     0.0000
     29  C2        22.7690   61.2010   61.6080 C.ar  1104  ANP1104     0.0000
     30  N3        21.5510   61.7280   61.3880 N.ar  1104  ANP1104     0.0000
     31  C4        20.5210   61.4200   62.1800 C.ar  1104  ANP1104     0.0000
@<TRIPOS>BOND
     1     1     4    1
     2     1     7    1
     3     5     8    1
     4     5    12    1
     5     5     6    2
     6     5     7    1
     7     9    13    1
     8     9    12    1
     9     9    11    2
    10     9    10    1
    11    13    14    1
    12    14    15    1
    13    15    17    1
    14    15    16    1
    15    16    21    1
    16    17    18    1
    17    17    19    1
    18    19    20    1
    19    19    21    1
    20    21    22    1
    21    22    31   ar
    22    22    23   ar
    23    23    24   ar
    24    24    25   ar
    25    25    31   ar
    26    25    26   ar
    27    26    28   ar
    28    26    27    1
    29    28    29   ar
    30    29    30   ar
    31    30    31   ar
