@<TRIPOS>MOLECULE
3u0z_CMP_2_ligand
   34    37     1     0     0
SMALL
NO_CHARGES


@<TRIPOS>ATOM
     1 P          -26.2720     4.5280   -19.5680 P.3          1 CMP646   0.0000
     2 O1P        -26.2940     5.2120   -20.9240 O.2          1 CMP646   0.0000
     3 O2P        -24.8710     4.0690   -19.2030 O.3          1 CMP646   0.0000
     4 O5'        -26.7940     5.5780   -18.4870 O.3          1 CMP646   0.0000
     5 C5'        -28.1710     5.8470   -18.3240 C.3          1 CMP646   0.0000
     6 C4'        -28.8120     4.5290   -17.9870 C.3          1 CMP646   0.0000
     7 O4'        -30.2340     4.5730   -17.8030 O.3          1 CMP646   0.0000
     8 C3'        -28.6690     3.6500   -19.1990 C.3          1 CMP646   0.0000
     9 O3'        -27.3070     3.3080   -19.3950 O.3          1 CMP646   0.0000
    10 C2'        -29.6260     2.5380   -18.8370 C.3          1 CMP646   0.0000
    11 O2'        -28.9180     1.5400   -18.0930 O.3          1 CMP646   0.0000
    12 C1'        -30.7470     3.2660   -18.0580 C.3          1 CMP646   0.0000
    13 N9         -31.9360     3.2070   -18.9630 N.pl3        1 CMP646   0.0000
    14 C8         -32.0050     3.7120   -20.2150 C.2          1 CMP646   0.0000
    15 N7         -33.1960     3.4230   -20.7940 N.2          1 CMP646   0.0000
    16 C5         -33.9230     2.7000   -19.9290 C.ar         1 CMP646   0.0000
    17 C6         -35.2600     2.0650   -19.9260 C.ar         1 CMP646   0.0000
    18 N6         -36.0640     2.1550   -21.0010 N.pl3        1 CMP646   0.0000
    19 N1         -35.6680     1.4020   -18.8280 N.ar         1 CMP646   0.0000
    20 C2         -34.8500     1.2950   -17.7630 C.ar         1 CMP646   0.0000
    21 N3         -33.6150     1.8270   -17.6870 N.ar         1 CMP646   0.0000
    22 C4         -33.0920     2.5450   -18.7220 C.ar         1 CMP646   0.0000
    23 H5'1       -28.5561     6.2146   -19.1705 H            1 CMP646   0.0000
    24 H5'2       -28.3118     6.5021   -17.5817 H            1 CMP646   0.0000
    25 H4'        -28.3665     4.1124   -17.1946 H            1 CMP646   0.0000
    26 H3'        -29.0103     4.1346   -20.0044 H            1 CMP646   0.0000
    27 H2'        -30.0028     2.1331   -19.6701 H            1 CMP646   0.0000
    28 H6         -28.5386     0.8617   -18.7223 H            1 CMP646   0.0000
    29 H1'        -30.9388     2.7925   -17.1984 H            1 CMP646   0.0000
    30 H8         -31.2730     4.2310   -20.6564 H            1 CMP646   0.0000
    31 H9         -36.9655     1.7224   -20.9888 H            1 CMP646   0.0000
    32 H10        -35.7601     2.6545   -21.8122 H            1 CMP646   0.0000
    33 H11        -35.1840     0.7834   -16.9713 H            1 CMP646   0.0000
    34 H2P        -24.9270     3.2549   -18.6250 H            1 CMP646   0.0000
@<TRIPOS>BOND
     1    1    2       2
     2    1    3       1
     3    1    4       1
     4    1    9       1
     5    4    5       1
     6    5    6       1
     7    6    7       1
     8    6    8       1
     9    7   12       1
    10    8    9       1
    11    8   10       1
    12   10   11       1
    13   10   12       1
    14   12   13       1
    15   13   14       1
    16   13   22       1
    17   14   15       2
    18   15   16       1
    19   16   17      ar
    20   16   22      ar
    21   17   18       1
    22   17   19      ar
    23   19   20      ar
    24   20   21      ar
    25   21   22      ar
    26   20   33       1
    27    5   23       1
    28    5   24       1
    29    6   25       1
    30    8   26       1
    31   10   27       1
    32   11   28       1
    33   12   29       1
    34   14   30       1
    35   18   31       1
    36   18   32       1
    37    3   34       1
@<TRIPOS>SUBSTRUCTURE
     1 CMP646      1 GROUP             4 B     CMP     0 **** CMP B 646
