@<TRIPOS>MOLECULE
3u04_BB2_1_ligand
   61    61     1     0     0
SMALL
NO_CHARGES


@<TRIPOS>ATOM
     1 C5         -11.0700     3.4110    12.2170 C.3          1 BB2210   0.0000
     2 C3         -11.4420     4.8540    12.2730 C.2          1 BB2210   0.0000
     3 O4         -11.7840     5.5830    11.3070 O.2          1 BB2210   0.0000
     4 N1         -11.2640     5.4000    13.4580 N.am         1 BB2210   0.0000
     5 O2         -11.3590     6.7530    13.5440 O.3          1 BB2210  -1.0000
     6 C6          -9.6130     3.2250    11.7560 C.3          1 BB2210   0.0000
     7 C12         -9.4990     1.8740    11.1580 C.2          1 BB2210   0.0000
     8 O13         -9.8170     0.8790    11.8120 O.2          1 BB2210   0.0000
     9 C7          -8.6450     3.2940    12.9160 C.3          1 BB2210   0.0000
    10 C8          -7.1760     2.9430    12.5470 C.3          1 BB2210   0.0000
    11 C9          -6.4200     4.2000    12.2240 C.3          1 BB2210   0.0000
    12 C10         -4.9240     4.0670    11.8960 C.3          1 BB2210   0.0000
    13 C11         -4.4670     2.7620    11.3010 C.3          1 BB2210   0.0000
    14 N14         -9.0190     1.8230     9.9220 N.am         1 BB2210   0.0000
    15 C15         -8.6600     0.5530     9.2730 C.3          1 BB2210   0.0000
    16 C16         -9.6400     0.1660     8.1630 C.3          1 BB2210   0.0000
    17 C18        -10.9660    -0.3080     8.7560 C.3          1 BB2210   0.0000
    18 C17         -9.9690     1.3090     7.2060 C.3          1 BB2210   0.0000
    19 C19         -7.2020     0.6330     8.8380 C.2          1 BB2210   0.0000
    20 O20         -6.7570     1.7140     8.4880 O.2          1 BB2210   0.0000
    21 N21         -6.4120    -0.4630     8.9410 N.am         1 BB2210   0.0000
    22 C22         -4.9780    -0.4410     8.5790 C.3          1 BB2210   0.0000
    23 C23         -6.8130    -1.7940     9.4550 C.3          1 BB2210   0.0000
    24 C24         -5.6010    -2.7020     9.2560 C.3          1 BB2210   0.0000
    25 C25         -4.4140    -1.7580     9.1080 C.3          1 BB2210   0.0000
    26 C26         -4.7870    -0.3230     7.0780 C.3          1 BB2210   0.0000
    27 O27         -3.3730    -0.2750     6.7880 O.3          1 BB2210   0.0000
    28 H1         -11.6769     2.9431    11.5746 H            1 BB2210   0.0000
    29 H2         -11.1768     3.0117    13.1276 H            1 BB2210   0.0000
    30 H3         -11.0666     4.8409    14.2632 H            1 BB2210   0.0000
    31 H4          -9.3796     3.9196    11.0756 H            1 BB2210   0.0000
    32 H5          -8.9528     2.6529    13.6190 H            1 BB2210   0.0000
    33 H6          -8.6618     4.2242    13.2827 H            1 BB2210   0.0000
    34 H7          -7.1689     2.3373    11.7513 H            1 BB2210   0.0000
    35 H8          -6.7401     2.4826    13.3203 H            1 BB2210   0.0000
    36 H9          -6.5001     4.8084    13.0135 H            1 BB2210   0.0000
    37 H10         -6.8635     4.6207    11.4326 H            1 BB2210   0.0000
    38 H11         -4.4156     4.2052    12.7459 H            1 BB2210   0.0000
    39 H12         -4.6920     4.7918    11.2472 H            1 BB2210   0.0000
    40 H13         -3.4818     2.7988    11.1337 H            1 BB2210   0.0000
    41 H14         -4.6696     2.0169    11.9364 H            1 BB2210   0.0000
    42 H15         -4.9460     2.6034    10.4377 H            1 BB2210   0.0000
    43 H16         -8.8973     2.6763     9.4150 H            1 BB2210   0.0000
    44 H17         -8.7168    -0.1586     9.9733 H            1 BB2210   0.0000
    45 H18         -9.2419    -0.5846     7.6357 H            1 BB2210   0.0000
    46 H19        -11.5921    -0.5560     8.0167 H            1 BB2210   0.0000
    47 H20        -10.8049    -1.1052     9.3378 H            1 BB2210   0.0000
    48 H21        -11.3688     0.4269     9.3015 H            1 BB2210   0.0000
    49 H22        -10.6110     0.9869     6.5103 H            1 BB2210   0.0000
    50 H23        -10.3817     2.0631     7.7168 H            1 BB2210   0.0000
    51 H24         -9.1298     1.6257     6.7640 H            1 BB2210   0.0000
    52 H25         -4.5275     0.3256     9.0365 H            1 BB2210   0.0000
    53 H26         -7.5972    -2.1432     8.9420 H            1 BB2210   0.0000
    54 H27         -7.0485    -1.7358    10.4251 H            1 BB2210   0.0000
    55 H28         -5.7112    -3.2584     8.4325 H            1 BB2210   0.0000
    56 H29         -5.4769    -3.2998    10.0480 H            1 BB2210   0.0000
    57 H30         -3.9727    -1.6149     9.9939 H            1 BB2210   0.0000
    58 H31         -3.7502    -2.1349     8.4620 H            1 BB2210   0.0000
    59 H32         -5.2257     0.5131     6.7486 H            1 BB2210   0.0000
    60 H33         -5.1959    -1.1149     6.6244 H            1 BB2210   0.0000
    61 H34         -3.2208     0.2638     5.9595 H            1 BB2210   0.0000
@<TRIPOS>BOND
     1    1    2       1
     2    1    6       1
     3    2    3       2
     4    2    4      am
     5    4    5       1
     6    6    7       1
     7    6    9       1
     8    7    8       2
     9    7   14      am
    10    9   10       1
    11   10   11       1
    12   11   12       1
    13   12   13       1
    14   14   15       1
    15   15   16       1
    16   15   19       1
    17   16   17       1
    18   16   18       1
    19   19   20       2
    20   19   21      am
    21   21   22       1
    22   21   23       1
    23   22   25       1
    24   22   26       1
    25   23   24       1
    26   24   25       1
    27   26   27       1
    28    1   28       1
    29    1   29       1
    30    4   30       1
    31   27   61       1
    32    6   31       1
    33    9   32       1
    34    9   33       1
    35   10   34       1
    36   10   35       1
    37   11   36       1
    38   11   37       1
    39   12   38       1
    40   12   39       1
    41   13   40       1
    42   13   41       1
    43   13   42       1
    44   14   43       1
    45   15   44       1
    46   16   45       1
    47   17   46       1
    48   17   47       1
    49   17   48       1
    50   18   49       1
    51   18   50       1
    52   18   51       1
    53   22   52       1
    54   23   53       1
    55   23   54       1
    56   24   55       1
    57   24   56       1
    58   25   57       1
    59   25   58       1
    60   26   59       1
    61   26   60       1
@<TRIPOS>SUBSTRUCTURE
     1 BB2210      1 GROUP             4 A     BB2     0 **** BB2 A 210
