@<TRIPOS>MOLECULE
5hw2_FUM_3_ligand
   10     9     1     0     0
SMALL
NO_CHARGES


@<TRIPOS>ATOM
     1 O1          -2.4580   -31.2220    43.6200 O.co2        1 FUM502   0.0000
     2 C2          -2.7370   -31.2370    42.4030 C.2          1 FUM502   0.0000
     3 O3          -2.3590   -32.1520    41.6480 O.co2        1 FUM502  -1.0000
     4 C4          -3.5140   -30.1310    41.8260 C.2          1 FUM502   0.0000
     5 C5          -3.0840   -28.8840    41.9670 C.2          1 FUM502   0.0000
     6 C6          -3.8760   -27.7900    41.3850 C.2          1 FUM502   0.0000
     7 O7          -3.2800   -26.8460    40.8230 O.co2        1 FUM502   0.0000
     8 O8          -5.1210   -27.8360    41.4820 O.co2        1 FUM502  -1.0000
     9 H1          -4.3620   -30.3174    41.3299 H            1 FUM502   0.0000
    10 H2          -2.2359   -28.6912    42.4605 H            1 FUM502   0.0000
@<TRIPOS>BOND
     1    1    2      ar
     2    2    3      ar
     3    2    4       1
     4    4    5       2
     5    5    6       1
     6    6    7      ar
     7    6    8      ar
     8    5   10       1
     9    4    9       1
@<TRIPOS>SUBSTRUCTURE
     1 FUM502      1 GROUP             4 C     FUM     0 **** FUM C 502
