@<TRIPOS>MOLECULE
4r08_URI_1_ligand
   29    30     1     0     0
SMALL
NO_CHARGES


@<TRIPOS>ATOM
     1 N1          19.8190    21.1440    37.5400 N.pl3        1 URI901   0.0000
     2 C2          19.7320    21.3350    38.9370 C.2          1 URI901   0.0000
     3 N3          18.4970    21.3630    39.5000 N.pl3        1 URI901   0.0000
     4 C4          17.3850    21.2050    38.7590 C.2          1 URI901   0.0000
     5 C5          17.4690    20.9690    37.3990 C.2          1 URI901   0.0000
     6 C6          18.7170    20.9370    36.8090 C.2          1 URI901   0.0000
     7 O2          20.7820    21.5120    39.6300 O.2          1 URI901   0.0000
     8 O4          16.2580    21.2330    39.2760 O.2          1 URI901   0.0000
     9 C1'         21.0880    21.0390    36.8560 C.3          1 URI901   0.0000
    10 C2'         22.0820    22.1260    37.1700 C.3          1 URI901   0.0000
    11 C3'         23.4230    21.4530    36.9410 C.3          1 URI901   0.0000
    12 C4'         23.1330    19.9690    37.1620 C.3          1 URI901   0.0000
    13 O2'         21.8990    23.1790    36.2380 O.3          1 URI901   0.0000
    14 O3'         23.8560    21.7130    35.5930 O.3          1 URI901   0.0000
    15 O4'         21.7110    19.8330    37.2540 O.3          1 URI901   0.0000
    16 C5'         23.7060    19.4200    38.4610 C.3          1 URI901   0.0000
    17 O5'         23.0860    20.0780    39.5700 O.3          1 URI901   0.0000
    18 H1          18.4119    21.5040    40.4863 H            1 URI901   0.0000
    19 H2          16.6430    20.8245    36.8541 H            1 URI901   0.0000
    20 H3          18.7981    20.7579    35.8285 H            1 URI901   0.0000
    21 H1'         20.9280    21.0156    35.8692 H            1 URI901   0.0000
    22 H2'         21.9887    22.4485    38.1120 H            1 URI901   0.0000
    23 H3'         24.1002    21.7822    37.5990 H            1 URI901   0.0000
    24 H4'         23.4758    19.4369    36.3878 H            1 URI901   0.0000
    25 H8          21.2312    23.8305    36.5980 H            1 URI901   0.0000
    26 H9          24.8554    21.7292    35.5612 H            1 URI901   0.0000
    27 H5'1        24.6924    19.5827    38.4855 H            1 URI901   0.0000
    28 H5'2        23.5288    18.4373    38.5147 H            1 URI901   0.0000
    29 H5'         22.4212    20.7447    39.2329 H            1 URI901   0.0000
@<TRIPOS>BOND
     1    1    2       1
     2    1    6       1
     3    1    9       1
     4    2    3       1
     5    2    7       2
     6    3    4       1
     7    4    5       1
     8    4    8       2
     9    5    6       2
    10    9   10       1
    11    9   15       1
    12   10   11       1
    13   10   13       1
    14   11   12       1
    15   11   14       1
    16   12   15       1
    17   12   16       1
    18   16   17       1
    19    3   18       1
    20    5   19       1
    21    6   20       1
    22    9   21       1
    23   10   22       1
    24   11   23       1
    25   12   24       1
    26   13   25       1
    27   14   26       1
    28   16   27       1
    29   16   28       1
    30   17   29       1
@<TRIPOS>SUBSTRUCTURE
     1 URI901      1 GROUP             4 A     URI     0 **** URI A 901
