@<TRIPOS>MOLECULE
4bj8_BTN_13_ligand
   31    32     1     0     0
SMALL
NO_CHARGES


@<TRIPOS>ATOM
     1 C11        213.4390    42.6500    31.1900 C.2          1 BTN1124   0.0000
     2 O11        213.1190    43.7610    31.7000 O.co2        1 BTN1124   0.0000
     3 O12        213.7750    42.5400    29.9920 O.co2        1 BTN1124  -1.0000
     4 C10        213.4230    41.3900    32.0220 C.3          1 BTN1124   0.0000
     5 C9         213.7350    41.6570    33.4950 C.3          1 BTN1124   0.0000
     6 C8         215.1570    42.1670    33.7790 C.3          1 BTN1124   0.0000
     7 C7         215.4530    42.2400    35.2800 C.3          1 BTN1124   0.0000
     8 C2         216.7690    42.9890    35.5460 C.3          1 BTN1124   0.0000
     9 S1         218.1650    41.8950    35.3750 S.3          1 BTN1124   0.0000
    10 C6         219.1380    43.2500    35.9790 C.3          1 BTN1124   0.0000
    11 C5         218.4030    43.8030    37.1910 C.3          1 BTN1124   0.0000
    12 N1         218.6430    43.0100    38.3950 N.am         1 BTN1124   0.0000
    13 C3         217.5430    42.4080    38.8350 C.2          1 BTN1124   0.0000
    14 O3         217.4490    41.7170    39.8220 O.2          1 BTN1124   0.0000
    15 N2         216.5390    42.6950    38.0260 N.am         1 BTN1124   0.0000
    16 C4         216.9180    43.6050    36.9300 C.3          1 BTN1124   0.0000
    17 H1         214.1069    40.7572    31.6589 H            1 BTN1124   0.0000
    18 H2         212.5160    40.9740    31.9566 H            1 BTN1124   0.0000
    19 H3         213.6060    40.8028    33.9986 H            1 BTN1124   0.0000
    20 H4         213.0878    42.3421    33.8294 H            1 BTN1124   0.0000
    21 H5         215.2564    43.0811    33.3858 H            1 BTN1124   0.0000
    22 H6         215.8138    41.5465    33.3505 H            1 BTN1124   0.0000
    23 H7         215.5256    41.3117    35.6446 H            1 BTN1124   0.0000
    24 H8         214.7050    42.7204    35.7379 H            1 BTN1124   0.0000
    25 H9         216.8573    43.7181    34.8673 H            1 BTN1124   0.0000
    26 H10        219.2229    43.9552    35.2751 H            1 BTN1124   0.0000
    27 H11        220.0483    42.9311    36.2429 H            1 BTN1124   0.0000
    28 H12        218.6211    44.7674    37.3405 H            1 BTN1124   0.0000
    29 H13        219.5357    42.9294    38.8384 H            1 BTN1124   0.0000
    30 H14        215.6150    42.3316    38.1451 H            1 BTN1124   0.0000
    31 H15        216.4226    44.4713    36.9937 H            1 BTN1124   0.0000
@<TRIPOS>BOND
     1    1    2      ar
     2    1    3      ar
     3    1    4       1
     4    4    5       1
     5    5    6       1
     6    6    7       1
     7    7    8       1
     8    8    9       1
     9    8   16       1
    10    9   10       1
    11   10   11       1
    12   11   12       1
    13   11   16       1
    14   12   13      am
    15   13   14       2
    16   13   15      am
    17   15   16       1
    18   16   31       1
    19    4   17       1
    20    4   18       1
    21    5   19       1
    22    5   20       1
    23    6   21       1
    24    6   22       1
    25    7   23       1
    26    7   24       1
    27    8   25       1
    28   10   26       1
    29   10   27       1
    30   11   28       1
    31   12   29       1
    32   15   30       1
@<TRIPOS>SUBSTRUCTURE
     1 BTN1124     1 GROUP             4 M     BTN     0 **** BTN M1124
