@<TRIPOS>MOLECULE
2ad5_ADP_1_ligand
   39    41     1     0     0
SMALL
NO_CHARGES


@<TRIPOS>ATOM
     1 PB          19.0060     8.1880    16.7630 P.3          1 ADP601   0.0000
     2 O1B         18.6560     9.0540    17.9300 O.co2        1 ADP601   0.0000
     3 O2B         18.3760     8.5940    15.4730 O.co2        1 ADP601  -1.0000
     4 O3B         18.9790     6.7230    17.0570 O.co2        1 ADP601  -1.0000
     5 PA          21.5190     9.3320    17.5810 P.3          1 ADP601   0.0000
     6 O1A         21.7180    10.7630    17.1750 O.co2        1 ADP601   0.0000
     7 O2A         20.9810     9.0970    18.9530 O.co2        1 ADP601  -1.0000
     8 O3A         20.5810     8.5290    16.5170 O.3          1 ADP601   0.0000
     9 O5'         22.7790     8.5530    17.4350 O.3          1 ADP601   0.0000
    10 C5'         23.2050     8.0110    16.2000 C.3          1 ADP601   0.0000
    11 C4'         24.7070     7.7900    16.2540 C.3          1 ADP601   0.0000
    12 O4'         25.3230     8.4200    15.1060 O.3          1 ADP601   0.0000
    13 C3'         25.4100     8.4080    17.4600 C.3          1 ADP601   0.0000
    14 O3'         26.6110     7.6960    17.8050 O.3          1 ADP601   0.0000
    15 C2'         25.7030     9.8200    16.9710 C.3          1 ADP601   0.0000
    16 O2'         26.7930    10.3900    17.6710 O.3          1 ADP601   0.0000
    17 C1'         26.0310     9.5810    15.4930 C.3          1 ADP601   0.0000
    18 N9          25.6220    10.6390    14.5680 N.pl3        1 ADP601   0.0000
    19 C8          24.4820    11.3420    14.2860 C.2          1 ADP601   0.0000
    20 N7          24.6210    12.2070    13.3060 N.2          1 ADP601   0.0000
    21 C5          25.9370    12.0450    12.8960 C.ar         1 ADP601   0.0000
    22 C6          26.7160    12.6530    11.8860 C.ar         1 ADP601   0.0000
    23 N6          26.2590    13.5920    11.0580 N.pl3        1 ADP601   0.0000
    24 N1          27.9960    12.2570    11.7400 N.ar         1 ADP601   0.0000
    25 C2          28.4600    11.3080    12.5560 C.ar         1 ADP601   0.0000
    26 N3          27.8340    10.6640    13.5390 N.ar         1 ADP601   0.0000
    27 C4          26.5640    11.0790    13.6610 C.ar         1 ADP601   0.0000
    28 H5'1        22.9853     8.6470    15.4603 H            1 ADP601   0.0000
    29 H5'2        22.7427     7.1392    16.0383 H            1 ADP601   0.0000
    30 H4'         24.8958     6.8083    16.2309 H            1 ADP601   0.0000
    31 H3'         24.7892     8.4365    18.2435 H            1 ADP601   0.0000
    32 H5          27.0403     8.1305    18.5968 H            1 ADP601   0.0000
    33 H2'         24.8906    10.3963    17.0600 H            1 ADP601   0.0000
    34 H7          26.9617    11.3146    17.3294 H            1 ADP601   0.0000
    35 H1'         27.0126     9.4175    15.3947 H            1 ADP601   0.0000
    36 H9          23.6226    11.2098    14.7799 H            1 ADP601   0.0000
    37 H10         26.8628    13.9829    10.3633 H            1 ADP601   0.0000
    38 H11         25.3123    13.9057    11.1314 H            1 ADP601   0.0000
    39 H12         29.4129    11.0432    12.4081 H            1 ADP601   0.0000
@<TRIPOS>BOND
     1    1    2      ar
     2    1    3      ar
     3    1    4      ar
     4    1    8       1
     5    5    6      ar
     6    5    7      ar
     7    5    8       1
     8    5    9       1
     9    9   10       1
    10   10   11       1
    11   11   12       1
    12   11   13       1
    13   12   17       1
    14   13   14       1
    15   13   15       1
    16   15   16       1
    17   15   17       1
    18   17   18       1
    19   18   19       1
    20   18   27       1
    21   19   20       2
    22   20   21       1
    23   21   22      ar
    24   21   27      ar
    25   22   23       1
    26   22   24      ar
    27   24   25      ar
    28   25   26      ar
    29   26   27      ar
    30   25   39       1
    31   23   38       1
    32   23   37       1
    33   10   28       1
    34   10   29       1
    35   11   30       1
    36   13   31       1
    37   14   32       1
    38   15   33       1
    39   16   34       1
    40   17   35       1
    41   19   36       1
@<TRIPOS>SUBSTRUCTURE
     1 ADP601      1 GROUP             4 A     ADP     0 **** ADP A 601
