@<TRIPOS>MOLECULE
3pym_NAD_1_ligand
   70    74     1     0     0
SMALL
NO_CHARGES


@<TRIPOS>ATOM
     1 PA          42.2770    24.8420    31.5530 P.3          1 NAD333   0.0000
     2 O1A         42.9430    25.2680    32.8080 O.co2        1 NAD333   0.0000
     3 O2A         42.7610    25.5080    30.3510 O.co2        1 NAD333  -1.0000
     4 O5B         40.6690    24.9210    31.7560 O.3          1 NAD333   0.0000
     5 C5B         40.0270    24.5870    32.9820 C.3          1 NAD333   0.0000
     6 C4B         38.9190    25.6240    33.1970 C.3          1 NAD333   0.0000
     7 O4B         37.9240    25.2050    34.1190 O.3          1 NAD333   0.0000
     8 C3B         39.4760    26.9620    33.6900 C.3          1 NAD333   0.0000
     9 O3B         39.1040    27.9890    32.7990 O.3          1 NAD333   0.0000
    10 C2B         38.7760    27.1950    35.0090 C.3          1 NAD333   0.0000
    11 O2B         38.4740    28.5620    35.1540 O.3          1 NAD333   0.0000
    12 C1B         37.5260    26.3210    34.8860 C.3          1 NAD333   0.0000
    13 N9A         36.9970    25.8360    36.1760 N.pl3        1 NAD333   0.0000
    14 C8A         37.7280    25.4650    37.2840 C.2          1 NAD333   0.0000
    15 N7A         36.8690    25.0680    38.2460 N.2          1 NAD333   0.0000
    16 C5A         35.6040    25.1830    37.7780 C.ar         1 NAD333   0.0000
    17 C6A         34.3670    24.9200    38.3600 C.ar         1 NAD333   0.0000
    18 N6A         34.2730    24.7970    39.6910 N.pl3        1 NAD333   0.0000
    19 N1A         33.2330    25.1340    37.6050 N.ar         1 NAD333   0.0000
    20 C2A         33.3050    25.6160    36.3020 C.ar         1 NAD333   0.0000
    21 N3A         34.5470    25.8860    35.7500 N.ar         1 NAD333   0.0000
    22 C4A         35.6710    25.6680    36.4720 C.ar         1 NAD333   0.0000
    23 O3          42.5670    23.2610    31.3940 O.3          1 NAD333   0.0000
    24 PN          42.3450    22.4130    30.0230 P.3          1 NAD333   0.0000
    25 O1N         43.6910    22.2010    29.3990 O.co2        1 NAD333   0.0000
    26 O2N         41.1430    22.9580    29.3200 O.co2        1 NAD333  -1.0000
    27 O5D         41.9060    20.9670    30.6210 O.3          1 NAD333   0.0000
    28 C5D         40.5840    20.7560    31.0900 C.3          1 NAD333   0.0000
    29 C4D         40.4050    19.2550    31.2260 C.3          1 NAD333   0.0000
    30 O4D         40.6330    18.6750    29.9450 O.3          1 NAD333   0.0000
    31 C3D         41.4550    18.6910    32.1730 C.3          1 NAD333   0.0000
    32 O3D         40.8810    17.6430    32.9120 O.3          1 NAD333   0.0000
    33 C2D         42.4970    18.1510    31.2190 C.3          1 NAD333   0.0000
    34 O2D         43.2360    17.0700    31.7320 O.3          1 NAD333   0.0000
    35 C1D         41.6510    17.6960    30.0370 C.3          1 NAD333   0.0000
    36 N1N         42.4400    17.6070    28.7920 N.ar         1 NAD333   1.0000
    37 C2N         43.2740    18.6450    28.4330 C.ar         1 NAD333   0.0000
    38 C3N         44.0220    18.5700    27.2470 C.ar         1 NAD333   0.0000
    39 C7N         44.9770    19.6710    26.8540 C.2          1 NAD333   0.0000
    40 O7N         46.0890    19.3190    26.0670 O.2          1 NAD333   0.0000
    41 N7N         44.7540    20.9370    27.2310 N.am         1 NAD333   0.0000
    42 C4N         43.9050    17.4320    26.4430 C.ar         1 NAD333   0.0000
    43 C5N         43.0600    16.3850    26.8250 C.ar         1 NAD333   0.0000
    44 C6N         42.3250    16.4840    28.0050 C.ar         1 NAD333   0.0000
    45 H5B1        40.6834    24.6230    33.7355 H            1 NAD333   0.0000
    46 H5B2        39.6337    23.6693    32.9261 H            1 NAD333   0.0000
    47 H4B         38.4732    25.7834    32.3162 H            1 NAD333   0.0000
    48 H3B         40.4684    26.9226    33.8064 H            1 NAD333   0.0000
    49 H5          38.1066    28.0430    32.7503 H            1 NAD333   0.0000
    50 H2B         39.3475    26.8816    35.7674 H            1 NAD333   0.0000
    51 H7          37.5689    28.7459    34.7707 H            1 NAD333   0.0000
    52 H1B         36.8120    26.8244    34.3993 H            1 NAD333   0.0000
    53 H8A         38.7247    25.4864    37.3617 H            1 NAD333   0.0000
    54 H6A1        33.3869    24.6081    40.1143 H            1 NAD333   0.0000
    55 H6A2        35.0889    24.8941    40.2610 H            1 NAD333   0.0000
    56 H2A         32.4712    25.7657    35.7706 H            1 NAD333   0.0000
    57 H5D1        39.9232    21.1242    30.4359 H            1 NAD333   0.0000
    58 H5D2        40.4578    21.2001    31.9771 H            1 NAD333   0.0000
    59 H4D         39.4847    19.0384    31.5517 H            1 NAD333   0.0000
    60 H3D         41.8326    19.3994    32.7694 H            1 NAD333   0.0000
    61 H17         41.5625    17.2644    33.5382 H            1 NAD333   0.0000
    62 H2D         43.1149    18.8845    30.9357 H            1 NAD333   0.0000
    63 H19         43.9017    16.7677    31.0498 H            1 NAD333   0.0000
    64 H1D         41.2429    16.8059    30.2397 H            1 NAD333   0.0000
    65 H2N         43.3462    19.4525    29.0184 H            1 NAD333   0.0000
    66 H7N1        45.3937    21.6581    26.9647 H            1 NAD333   0.0000
    67 H7N2        43.9479    21.1610    27.7787 H            1 NAD333   0.0000
    68 H4N         44.4269    17.3665    25.5925 H            1 NAD333   0.0000
    69 H5N         42.9835    15.5681    26.2534 H            1 NAD333   0.0000
    70 H6N         41.7152    15.7404    28.2792 H            1 NAD333   0.0000
@<TRIPOS>BOND
     1    1    2      ar
     2    1    3      ar
     3    1    4       1
     4    1   23       1
     5    4    5       1
     6    5    6       1
     7    6    7       1
     8    6    8       1
     9    7   12       1
    10    8    9       1
    11    8   10       1
    12   10   11       1
    13   10   12       1
    14   12   13       1
    15   13   14       1
    16   13   22       1
    17   14   15       2
    18   15   16       1
    19   16   17      ar
    20   16   22      ar
    21   17   18       1
    22   17   19      ar
    23   19   20      ar
    24   20   21      ar
    25   21   22      ar
    26   23   24       1
    27   24   25      ar
    28   24   26      ar
    29   24   27       1
    30   27   28       1
    31   28   29       1
    32   29   30       1
    33   29   31       1
    34   30   35       1
    35   31   32       1
    36   31   33       1
    37   33   34       1
    38   33   35       1
    39   35   36       1
    40   36   37      ar
    41   36   44      ar
    42   37   38      ar
    43   38   39       1
    44   38   42      ar
    45   39   40       2
    46   39   41      am
    47   42   43      ar
    48   43   44      ar
    49   44   70       1
    50    5   45       1
    51    5   46       1
    52    6   47       1
    53    8   48       1
    54    9   49       1
    55   10   50       1
    56   11   51       1
    57   12   52       1
    58   14   53       1
    59   18   54       1
    60   18   55       1
    61   20   56       1
    62   43   69       1
    63   28   57       1
    64   28   58       1
    65   29   59       1
    66   31   60       1
    67   32   61       1
    68   33   62       1
    69   34   63       1
    70   35   64       1
    71   37   65       1
    72   41   66       1
    73   41   67       1
    74   42   68       1
@<TRIPOS>SUBSTRUCTURE
     1 NAD333      1 GROUP             4 A     NAD     0 **** NAD A 333
