@<TRIPOS>MOLECULE
1lp4_ANP_1_ligand
   44    46     1     0     0
SMALL
NO_CHARGES


@<TRIPOS>ATOM
     1 PG          26.5350    -0.5290    15.9430 P.3          1 ANP340   0.0000
     2 O1G         25.0670    -0.6390    16.0350 O.co2        1 ANP340   0.0000
     3 O2G         27.1480    -1.6110    16.7990 O.co2        1 ANP340  -1.0000
     4 O3G         26.9250    -0.3920    14.5220 O.co2        1 ANP340  -1.0000
     5 PB          27.5260     2.3410    16.0260 P.3          1 ANP340   0.0000
     6 O1B         29.0150     2.4140    16.3590 O.co2        1 ANP340   0.0000
     7 O2B         27.2020     2.5300    14.5850 O.co2        1 ANP340  -1.0000
     8 N3B         26.8720     0.9720    16.7520 N.3          1 ANP340   0.0000
     9 PA          25.4000     4.1900    16.7530 P.3          1 ANP340   0.0000
    10 O1A         25.3030     5.2350    15.7220 O.co2        1 ANP340   0.0000
    11 O2A         24.4220     3.1260    16.5590 O.co2        1 ANP340  -1.0000
    12 O3A         26.9070     3.5700    16.8820 O.3          1 ANP340   0.0000
    13 O5'         25.1460     4.6550    18.2770 O.3          1 ANP340   0.0000
    14 C5'         25.2850     3.7330    19.3530 C.3          1 ANP340   0.0000
    15 C4'         24.2740     4.1170    20.3970 C.3          1 ANP340   0.0000
    16 O4'         24.3750     5.5180    20.7230 O.3          1 ANP340   0.0000
    17 C3'         22.8730     3.8830    19.8630 C.3          1 ANP340   0.0000
    18 O3'         22.4730     2.5070    19.9190 O.3          1 ANP340   0.0000
    19 C2'         22.0930     4.8360    20.7460 C.3          1 ANP340   0.0000
    20 O2'         21.7650     4.1990    21.9640 O.3          1 ANP340   0.0000
    21 C1'         23.0590     5.9680    21.0020 C.3          1 ANP340   0.0000
    22 N9          22.6980     7.0650    20.0530 N.pl3        1 ANP340   0.0000
    23 C8          23.2260     7.1500    18.8260 C.2          1 ANP340   0.0000
    24 N7          22.7070     8.1790    18.1610 N.2          1 ANP340   0.0000
    25 C5          21.8080     8.7570    18.9530 C.ar         1 ANP340   0.0000
    26 C6          20.9540     9.9340    18.8640 C.ar         1 ANP340   0.0000
    27 N6          20.9200    10.6650    17.7420 N.pl3        1 ANP340   0.0000
    28 N1          20.1840    10.2550    19.9120 N.ar         1 ANP340   0.0000
    29 C2          20.1980     9.5490    21.0440 C.ar         1 ANP340   0.0000
    30 N3          21.0010     8.5050    21.2010 N.ar         1 ANP340   0.0000
    31 C4          21.8020     8.0390    20.2250 C.ar         1 ANP340   0.0000
    32 H3B         27.5012     0.7385    17.4933 H            1 ANP340   0.0000
    33 H5'1        26.2083     3.7864    19.7335 H            1 ANP340   0.0000
    34 H5'2        25.1101     2.8022    19.0320 H            1 ANP340   0.0000
    35 H4'         24.4161     3.5686    21.2210 H            1 ANP340   0.0000
    36 H3'         22.8257     4.2002    18.9158 H            1 ANP340   0.0000
    37 H6          21.5459     2.4143    19.5557 H            1 ANP340   0.0000
    38 H2'         21.2711     5.1645    20.2806 H            1 ANP340   0.0000
    39 H8          21.2079     3.3897    21.7775 H            1 ANP340   0.0000
    40 H1'         22.9883     6.2838    21.9482 H            1 ANP340   0.0000
    41 H10         23.9159     6.5258    18.4594 H            1 ANP340   0.0000
    42 H11         20.3313    11.4716    17.6884 H            1 ANP340   0.0000
    43 H12         21.4833    10.4041    16.9580 H            1 ANP340   0.0000
    44 H13         19.5888     9.8131    21.7917 H            1 ANP340   0.0000
@<TRIPOS>BOND
     1    1    2      ar
     2    1    3      ar
     3    1    4      ar
     4    1    8       1
     5    5    6      ar
     6    5    7      ar
     7    5    8       1
     8    5   12       1
     9    9   10      ar
    10    9   11      ar
    11    9   12       1
    12    9   13       1
    13   13   14       1
    14   14   15       1
    15   15   16       1
    16   15   17       1
    17   16   21       1
    18   17   18       1
    19   17   19       1
    20   19   20       1
    21   19   21       1
    22   21   22       1
    23   22   23       1
    24   22   31       1
    25   23   24       2
    26   24   25       1
    27   25   26      ar
    28   25   31      ar
    29   26   27       1
    30   26   28      ar
    31   28   29      ar
    32   29   30      ar
    33   30   31      ar
    34   29   44       1
    35   27   43       1
    36   27   42       1
    37    8   32       1
    38   23   41       1
    39   14   33       1
    40   14   34       1
    41   15   35       1
    42   17   36       1
    43   18   37       1
    44   19   38       1
    45   20   39       1
    46   21   40       1
@<TRIPOS>SUBSTRUCTURE
     1 ANP340      1 GROUP             4 A     ANP     0 **** ANP A 340
