@<TRIPOS>MOLECULE
3fzf_ATP_1_ligand
   43    45     1     0     0
SMALL
NO_CHARGES


@<TRIPOS>ATOM
     1 PG          12.6440     4.7560     6.8060 P.3          1 ATP401   0.0000
     2 O1G         12.3230     5.3060     5.4320 O.co2        1 ATP401   0.0000
     3 O2G         11.4870     4.2280     7.6320 O.co2        1 ATP401  -1.0000
     4 O3G         13.6780     5.5160     7.5930 O.co2        1 ATP401  -1.0000
     5 PB          12.4560     2.2470     5.7340 P.3          1 ATP401   0.0000
     6 O1B         11.5720     1.6300     6.8130 O.co2        1 ATP401   0.0000
     7 O2B         11.8230     2.7700     4.4600 O.co2        1 ATP401  -1.0000
     8 O3B         13.3560     3.3830     6.4240 O.3          1 ATP401   0.0000
     9 PA          14.6400     1.6320     4.0930 P.3          1 ATP401   0.0000
    10 O1A         16.0370     1.7950     4.6610 O.co2        1 ATP401   0.0000
    11 O2A         14.0420     2.6810     3.1850 O.co2        1 ATP401  -1.0000
    12 O3A         13.6750     1.2890     5.3430 O.3          1 ATP401   0.0000
    13 O5'         14.6250     0.2000     3.3420 O.3          1 ATP401   0.0000
    14 C5'         14.2820    -0.9610     4.0980 C.3          1 ATP401   0.0000
    15 C4'         14.1030    -2.1620     3.1950 C.3          1 ATP401   0.0000
    16 O4'         14.9670    -2.1380     2.0390 O.3          1 ATP401   0.0000
    17 C3'         14.3860    -3.4540     3.9470 C.3          1 ATP401   0.0000
    18 O3'         13.1610    -4.1890     3.9670 O.3          1 ATP401   0.0000
    19 C2'         15.4850    -4.0970     3.1300 C.3          1 ATP401   0.0000
    20 O2'         15.4440    -5.5230     3.0280 O.3          1 ATP401   0.0000
    21 C1'         15.3290    -3.4810     1.7680 C.3          1 ATP401   0.0000
    22 N9          16.6280    -3.5270     1.1000 N.pl3        1 ATP401   0.0000
    23 C8          17.7800    -2.9010     1.4390 C.2          1 ATP401   0.0000
    24 N7          18.7550    -3.2150     0.5460 N.2          1 ATP401   0.0000
    25 C5          18.2220    -4.0540    -0.3470 C.ar         1 ATP401   0.0000
    26 C6          18.6700    -4.7770    -1.5440 C.ar         1 ATP401   0.0000
    27 N6          19.9620    -4.6840    -2.0040 N.pl3        1 ATP401   0.0000
    28 N1          17.7490    -5.5550    -2.1510 N.ar         1 ATP401   0.0000
    29 C2          16.4920    -5.6730    -1.7680 C.ar         1 ATP401   0.0000
    30 N3          16.0130    -5.0560    -0.7010 N.ar         1 ATP401   0.0000
    31 C4          16.8250    -4.2570     0.0310 C.ar         1 ATP401   0.0000
    32 H5'1        13.4278    -0.7909     4.5893 H            1 ATP401   0.0000
    33 H5'2        15.0119    -1.1513     4.7545 H            1 ATP401   0.0000
    34 H4'         13.1542    -2.1814     2.8798 H            1 ATP401   0.0000
    35 H3'         14.7004    -3.2623     4.8767 H            1 ATP401   0.0000
    36 H5          13.2978    -5.0517     4.4538 H            1 ATP401   0.0000
    37 H2'         16.3700    -3.8253     3.5082 H            1 ATP401   0.0000
    38 H7          15.9684    -5.9260     3.7781 H            1 ATP401   0.0000
    39 H1'         14.6255    -3.9489     1.2330 H            1 ATP401   0.0000
    40 H9          17.8958    -2.2980     2.2283 H            1 ATP401   0.0000
    41 H10         20.2389    -5.1879    -2.8222 H            1 ATP401   0.0000
    42 H11         20.6250    -4.1125    -1.5205 H            1 ATP401   0.0000
    43 H12         15.8779    -6.2512    -2.3052 H            1 ATP401   0.0000
@<TRIPOS>BOND
     1    1    2      ar
     2    1    3      ar
     3    1    4      ar
     4    1    8       1
     5    5    6      ar
     6    5    7      ar
     7    5    8       1
     8    5   12       1
     9    9   10      ar
    10    9   11      ar
    11    9   12       1
    12    9   13       1
    13   13   14       1
    14   14   15       1
    15   15   16       1
    16   15   17       1
    17   16   21       1
    18   17   18       1
    19   17   19       1
    20   19   20       1
    21   19   21       1
    22   21   22       1
    23   22   23       1
    24   22   31       1
    25   23   24       2
    26   24   25       1
    27   25   26      ar
    28   25   31      ar
    29   26   27       1
    30   26   28      ar
    31   28   29      ar
    32   29   30      ar
    33   30   31      ar
    34   29   43       1
    35   27   42       1
    36   27   41       1
    37   23   40       1
    38   14   32       1
    39   14   33       1
    40   15   34       1
    41   17   35       1
    42   18   36       1
    43   19   37       1
    44   20   38       1
    45   21   39       1
@<TRIPOS>SUBSTRUCTURE
     1 ATP401      1 GROUP             4 A     ATP     0 **** ATP A 401
