@<TRIPOS>MOLECULE
4gek_GEK_2_ligand
   52    54     1     0     0
SMALL
NO_CHARGES


@<TRIPOS>ATOM
     1 C           14.4910   -14.3960   -20.0540 C.2          1 GEK303   0.0000
     2 N           15.5850   -16.4840   -19.2410 N.4          1 GEK303   1.0000
     3 O           14.6750   -13.2580   -20.5420 O.co2        1 GEK303   0.0000
     4 N1          24.1760   -22.7820   -19.4950 N.ar         1 GEK303   0.0000
     5 C2          23.8760   -21.4930   -19.0760 C.ar         1 GEK303   0.0000
     6 N3          23.2160   -20.7020   -19.9690 N.ar         1 GEK303   0.0000
     7 C4          22.9120   -21.1640   -21.1620 C.ar         1 GEK303   0.0000
     8 C5          23.1680   -22.4610   -21.5480 C.ar         1 GEK303   0.0000
     9 C6          23.8640   -23.2620   -20.6900 C.ar         1 GEK303   0.0000
    10 N6          24.2620   -24.6230   -21.0460 N.pl3        1 GEK303   0.0000
    11 N7          22.8010   -22.6530   -22.8060 N.2          1 GEK303   0.0000
    12 C8          22.1550   -21.5390   -23.2140 C.2          1 GEK303   0.0000
    13 N9          22.2500   -20.5770   -22.2340 N.pl3        1 GEK303   0.0000
    14 CA          15.6570   -15.3360   -20.2280 C.3          1 GEK303   0.0000
    15 CB          15.7210   -15.8160   -21.6850 C.3          1 GEK303   0.0000
    16 SD          17.4630   -16.8780   -23.5200 S.3          1 GEK303   1.0000
    17 CE          16.0820   -17.2540   -24.5920 C.3          1 GEK303   0.0000
    18 CG          16.7370   -16.9560   -21.8610 C.3          1 GEK303   0.0000
    19 CZ          16.4170   -17.0560   -26.0510 C.2          1 GEK303   0.0000
    20 C1'         21.6470   -19.2350   -22.1730 C.3          1 GEK303   0.0000
    21 C2'         21.9490   -18.3390   -23.3380 C.3          1 GEK303   0.0000
    22 O2'         23.2340   -17.7780   -23.2940 O.3          1 GEK303   0.0000
    23 C3'         20.8020   -17.3610   -23.2740 C.3          1 GEK303   0.0000
    24 O3'         21.1660   -16.1400   -22.6270 O.3          1 GEK303   0.0000
    25 C4'         19.7230   -18.1400   -22.5680 C.3          1 GEK303   0.0000
    26 O4'         20.2470   -19.4520   -22.2640 O.3          1 GEK303   0.0000
    27 C5'         18.4990   -18.3630   -23.4720 C.3          1 GEK303   0.0000
    28 OXT         13.5130   -14.8410   -19.4440 O.co2        1 GEK303  -1.0000
    29 OZ1         15.5120   -17.5530   -26.8840 O.co2        1 GEK303   0.0000
    30 OZ2         17.6650   -16.6880   -26.3890 O.co2        1 GEK303  -1.0000
    31 H1          15.0705   -17.2399   -19.6459 H            1 GEK303   0.0000
    32 H2          16.5104   -16.7916   -19.0194 H            1 GEK303   0.0000
    33 H3          24.1305   -21.1622   -18.1673 H            1 GEK303   0.0000
    34 H4          24.0303   -24.9925   -21.9459 H            1 GEK303   0.0000
    35 H5          24.7659   -25.1844   -20.3896 H            1 GEK303   0.0000
    36 H6          21.6829   -21.4304   -24.0888 H            1 GEK303   0.0000
    37 HA          16.4940   -14.8226   -20.0386 H            1 GEK303   0.0000
    38 HB1         15.9895   -15.0491   -22.2679 H            1 GEK303   0.0000
    39 HB2         14.8164   -16.1423   -21.9592 H            1 GEK303   0.0000
    40 HE1         15.3177   -16.6549   -24.3536 H            1 GEK303   0.0000
    41 HE2         15.8152   -18.2072   -24.4500 H            1 GEK303   0.0000
    42 HG1         16.2746   -17.8346   -21.7417 H            1 GEK303   0.0000
    43 HG2         17.4607   -16.8646   -21.1770 H            1 GEK303   0.0000
    44 H1'         21.8785   -18.7832   -21.3114 H            1 GEK303   0.0000
    45 H2'         21.8644   -18.8729   -24.1793 H            1 GEK303   0.0000
    46 H16         23.5162   -17.6655   -22.3413 H            1 GEK303   0.0000
    47 H3'         20.4981   -17.1566   -24.2045 H            1 GEK303   0.0000
    48 H18         21.4605   -16.3336   -21.6912 H            1 GEK303   0.0000
    49 H4'         19.4518   -17.6719   -21.7270 H            1 GEK303   0.0000
    50 H5'1        18.8092   -18.5774   -24.3982 H            1 GEK303   0.0000
    51 H5'2        17.9617   -19.1272   -23.1151 H            1 GEK303   0.0000
    52 H22         15.1266   -16.1780   -18.4066 H            1 GEK303   0.0000
@<TRIPOS>BOND
     1    1    3      ar
     2    1   14       1
     3    1   28      ar
     4    2   14       1
     5    4    5      ar
     6    4    9      ar
     7    5    6      ar
     8    6    7      ar
     9    7    8      ar
    10    7   13       1
    11    8    9      ar
    12    8   11       1
    13    9   10       1
    14   11   12       2
    15   12   13       1
    16   13   20       1
    17   14   15       1
    18   15   18       1
    19   16   17       1
    20   16   18       1
    21   16   27       1
    22   17   19       1
    23   19   29      ar
    24   19   30      ar
    25   20   21       1
    26   20   26       1
    27   21   22       1
    28   21   23       1
    29   23   24       1
    30   23   25       1
    31   25   26       1
    32   25   27       1
    33    2   31       1
    34    2   32       1
    35    2   52       1
    36    5   33       1
    37   10   34       1
    38   10   35       1
    39   12   36       1
    40   14   37       1
    41   15   38       1
    42   15   39       1
    43   17   40       1
    44   17   41       1
    45   18   42       1
    46   18   43       1
    47   20   44       1
    48   21   45       1
    49   22   46       1
    50   23   47       1
    51   24   48       1
    52   25   49       1
    53   27   50       1
    54   27   51       1
@<TRIPOS>SUBSTRUCTURE
     1 GEK303      1 GROUP             4 G     GEK     0 **** GEK G 303
