@<TRIPOS>MOLECULE
2qvy_34Z_1_ligand
   14    14     1     0     0
SMALL
NO_CHARGES


@<TRIPOS>ATOM
     1 CL4         12.6610   -46.0500    -4.6990 Cl           1 34Z505   0.0000
     2 C4          11.3270   -46.8080    -3.8300 C.ar         1 34Z505   0.0000
     3 C5          10.0320   -46.3010    -3.9520 C.ar         1 34Z505   0.0000
     4 C6           9.0170   -46.8980    -3.2550 C.ar         1 34Z505   0.0000
     5 C3          11.7190   -47.8800    -3.0640 C.ar         1 34Z505   0.0000
     6 CL3         13.5110   -48.3890    -3.0000 Cl           1 34Z505   0.0000
     7 C2          10.6850   -48.4840    -2.3810 C.ar         1 34Z505   0.0000
     8 C1           9.3810   -47.9800    -2.4760 C.ar         1 34Z505   0.0000
     9 C            8.2920   -48.6690    -1.7290 C.2          1 34Z505   0.0000
    10 O2           7.1340   -48.2840    -1.9650 O.co2        1 34Z505   0.0000
    11 O1           8.5620   -49.6020    -0.9320 O.co2        1 34Z505  -1.0000
    12 H1           9.8488   -45.5132    -4.5401 H            1 34Z505   0.0000
    13 H2           8.0729   -46.5724    -3.3060 H            1 34Z505   0.0000
    14 H3          10.8668   -49.2873    -1.8139 H            1 34Z505   0.0000
@<TRIPOS>BOND
     1    1    2       1
     2    2    3      ar
     3    2    5      ar
     4    3    4      ar
     5    4    8      ar
     6    5    6       1
     7    5    7      ar
     8    7    8      ar
     9    8    9       1
    10    9   10      ar
    11    9   11      ar
    12    3   12       1
    13    4   13       1
    14    7   14       1
@<TRIPOS>SUBSTRUCTURE
     1 34Z505      1 GROUP             4 X     34Z     0 **** 34Z X 505
