@<TRIPOS>MOLECULE
3lga_SAH_1_ligand
   46    48     1     0     0
SMALL
NO_CHARGES


@<TRIPOS>ATOM
     1 N           -9.8620    21.4120    23.8050 N.4          1 SAH301   1.0000
     2 CA         -11.3620    21.1390    23.7210 C.3          1 SAH301   0.0000
     3 CB         -12.1020    22.2330    24.5080 C.3          1 SAH301   0.0000
     4 CG         -11.7950    22.2480    26.0230 C.3          1 SAH301   0.0000
     5 SD         -12.7900    23.5240    26.9030 S.3          1 SAH301   0.0000
     6 C          -11.8910    21.0370    22.2670 C.2          1 SAH301   0.0000
     7 O          -11.1360    21.3700    21.3360 O.co2        1 SAH301   0.0000
     8 OXT        -13.0470    20.6720    21.9580 O.co2        1 SAH301  -1.0000
     9 C5'        -12.1030    23.2600    28.5910 C.3          1 SAH301   0.0000
    10 C4'        -12.6430    21.9580    29.2030 C.3          1 SAH301   0.0000
    11 O4'        -11.8600    21.5400    30.3060 O.3          1 SAH301   0.0000
    12 C3'        -14.0660    22.1060    29.7220 C.3          1 SAH301   0.0000
    13 O3'        -14.7820    21.0680    29.1110 O.3          1 SAH301   0.0000
    14 C2'        -13.9500    21.8990    31.2250 C.3          1 SAH301   0.0000
    15 O2'        -15.0780    21.2530    31.7450 O.3          1 SAH301   0.0000
    16 C1'        -12.7070    21.0250    31.3130 C.3          1 SAH301   0.0000
    17 N9         -11.9650    21.1210    32.5670 N.pl3        1 SAH301   0.0000
    18 C8         -11.7380    22.2530    33.3220 C.2          1 SAH301   0.0000
    19 N7         -10.9710    21.8880    34.3900 N.2          1 SAH301   0.0000
    20 C5         -10.7270    20.5670    34.3260 C.ar         1 SAH301   0.0000
    21 C6         -10.0150    19.6980    35.1740 C.ar         1 SAH301   0.0000
    22 N6          -9.4140    20.1580    36.2760 N.pl3        1 SAH301   0.0000
    23 N1          -9.9180    18.3700    34.8260 N.ar         1 SAH301   0.0000
    24 C2         -10.5330    17.8900    33.6930 C.ar         1 SAH301   0.0000
    25 N3         -11.2560    18.7440    32.8550 N.ar         1 SAH301   0.0000
    26 C4         -11.3420    20.0640    33.1800 C.ar         1 SAH301   0.0000
    27 H1          -9.4052    20.6339    24.2361 H            1 SAH301   0.0000
    28 H2          -9.4954    21.5454    22.8842 H            1 SAH301   0.0000
    29 HA         -11.5393    20.2646    24.1727 H            1 SAH301   0.0000
    30 HB1        -13.0850    22.0930    24.3894 H            1 SAH301   0.0000
    31 HB2        -11.8435    23.1210    24.1277 H            1 SAH301   0.0000
    32 HG1        -10.8237    22.4455    26.1555 H            1 SAH301   0.0000
    33 HG2        -12.0077    21.3492    26.4063 H            1 SAH301   0.0000
    34 H5'1       -12.3632    24.0291    29.1747 H            1 SAH301   0.0000
    35 H5'2       -11.1060    23.2068    28.5345 H            1 SAH301   0.0000
    36 H4'        -12.6265    21.2419    28.5052 H            1 SAH301   0.0000
    37 H3'        -14.4502    23.0021    29.4998 H            1 SAH301   0.0000
    38 H12        -14.3827    20.1891    29.3718 H            1 SAH301   0.0000
    39 H2'        -13.7995    22.7718    31.6894 H            1 SAH301   0.0000
    40 H14        -14.9356    20.2635    31.7220 H            1 SAH301   0.0000
    41 H1'        -12.9382    20.0718    31.1184 H            1 SAH301   0.0000
    42 H16        -12.0743    23.1735    33.1229 H            1 SAH301   0.0000
    43 H17         -8.9112    19.5304    36.8703 H            1 SAH301   0.0000
    44 H18         -9.4673    21.1297    36.5060 H            1 SAH301   0.0000
    45 H19        -10.4620    16.9187    33.4661 H            1 SAH301   0.0000
    46 H20         -9.7030    22.2355    24.3496 H            1 SAH301   0.0000
@<TRIPOS>BOND
     1    1    2       1
     2    2    3       1
     3    2    6       1
     4    3    4       1
     5    4    5       1
     6    5    9       1
     7    6    7      ar
     8    6    8      ar
     9    9   10       1
    10   10   11       1
    11   10   12       1
    12   11   16       1
    13   12   13       1
    14   12   14       1
    15   14   15       1
    16   14   16       1
    17   16   17       1
    18   17   18       1
    19   17   26       1
    20   18   19       2
    21   19   20       1
    22   20   21      ar
    23   20   26      ar
    24   21   22       1
    25   21   23      ar
    26   23   24      ar
    27   24   25      ar
    28   25   26      ar
    29    1   27       1
    30    1   28       1
    31    2   29       1
    32    3   30       1
    33    3   31       1
    34    4   32       1
    35    4   33       1
    36    1   46       1
    37    9   34       1
    38    9   35       1
    39   10   36       1
    40   12   37       1
    41   13   38       1
    42   14   39       1
    43   15   40       1
    44   16   41       1
    45   18   42       1
    46   22   43       1
    47   22   44       1
    48   24   45       1
@<TRIPOS>SUBSTRUCTURE
     1 SAH301      1 GROUP             4 A     SAH     0 **** SAH A 301
