@<TRIPOS>MOLECULE
3l0d_NAD_2_ligand
   70    74     1     0     0
SMALL
NO_CHARGES


@<TRIPOS>ATOM
     1 PA          49.0930   -16.9820   -18.7720 P.3          1 NAD336   0.0000
     2 O1A         49.5560   -16.2000   -19.9840 O.co2        1 NAD336   0.0000
     3 O2A         47.7830   -17.7440   -18.8730 O.co2        1 NAD336  -1.0000
     4 O5B         50.2590   -18.0340   -18.3520 O.3          1 NAD336   0.0000
     5 C5B         50.0020   -19.4020   -18.0310 C.3          1 NAD336   0.0000
     6 C4B         50.7130   -20.2690   -19.0630 C.3          1 NAD336   0.0000
     7 O4B         50.8850   -21.6050   -18.5900 O.3          1 NAD336   0.0000
     8 C3B         49.9420   -20.3410   -20.3690 C.3          1 NAD336   0.0000
     9 O3B         50.8330   -19.9710   -21.4210 O.3          1 NAD336   0.0000
    10 C2B         49.5020   -21.7840   -20.5170 C.3          1 NAD336   0.0000
    11 O2B         49.6520   -22.2690   -21.8550 O.3          1 NAD336   0.0000
    12 C1B         50.4020   -22.5490   -19.5530 C.3          1 NAD336   0.0000
    13 N9A         49.6770   -23.6740   -18.8890 N.pl3        1 NAD336   0.0000
    14 C8A         48.3840   -23.6880   -18.5020 C.2          1 NAD336   0.0000
    15 N7A         48.0950   -24.8850   -17.9490 N.2          1 NAD336   0.0000
    16 C5A         49.2280   -25.6400   -17.9870 C.ar         1 NAD336   0.0000
    17 C6A         49.5590   -26.9420   -17.5690 C.ar         1 NAD336   0.0000
    18 N6A         48.6460   -27.7520   -16.9830 N.pl3        1 NAD336   0.0000
    19 N1A         50.8180   -27.4010   -17.7600 N.ar         1 NAD336   0.0000
    20 C2A         51.7550   -26.6330   -18.3410 C.ar         1 NAD336   0.0000
    21 N3A         51.4730   -25.3840   -18.7470 N.ar         1 NAD336   0.0000
    22 C4A         50.2210   -24.8620   -18.5850 C.ar         1 NAD336   0.0000
    23 O3          49.0010   -15.9600   -17.5030 O.3          1 NAD336   0.0000
    24 PN          50.2390   -15.3650   -16.6250 P.3          1 NAD336   0.0000
    25 O1N         50.1570   -13.8600   -16.5610 O.co2        1 NAD336   0.0000
    26 O2N         51.5340   -16.0260   -17.0690 O.co2        1 NAD336  -1.0000
    27 O5D         49.9530   -15.8850   -15.1240 O.3          1 NAD336   0.0000
    28 C5D         50.8510   -16.7670   -14.4150 C.3          1 NAD336   0.0000
    29 C4D         50.8090   -16.5470   -12.8960 C.3          1 NAD336   0.0000
    30 O4D         51.4990   -15.3300   -12.5680 O.3          1 NAD336   0.0000
    31 C3D         49.3780   -16.4290   -12.3510 C.3          1 NAD336   0.0000
    32 O3D         49.1850   -17.3040   -11.2430 O.3          1 NAD336   0.0000
    33 C2D         49.2530   -14.9920   -11.8980 C.3          1 NAD336   0.0000
    34 O2D         48.5030   -14.8460   -10.6990 O.3          1 NAD336   0.0000
    35 C1D         50.6930   -14.5820   -11.6370 C.3          1 NAD336   0.0000
    36 N1N         50.8120   -13.1220   -11.7340 N.ar         1 NAD336   1.0000
    37 C2N         50.5580   -12.5180   -12.9050 C.ar         1 NAD336   0.0000
    38 C3N         50.6460   -11.1380   -13.0330 C.ar         1 NAD336   0.0000
    39 C7N         50.3440   -10.5040   -14.3760 C.2          1 NAD336   0.0000
    40 O7N         49.9590    -9.2260   -14.4800 O.2          1 NAD336   0.0000
    41 N7N         50.4440   -11.2460   -15.4780 N.am         1 NAD336   0.0000
    42 C4N         50.9970   -10.3910   -11.9100 C.ar         1 NAD336   0.0000
    43 C5N         51.2500   -11.0390   -10.7050 C.ar         1 NAD336   0.0000
    44 C6N         51.1490   -12.4200   -10.6370 C.ar         1 NAD336   0.0000
    45 H5B1        49.0181   -19.5783   -18.0596 H            1 NAD336   0.0000
    46 H5B2        50.3510   -19.6075   -17.1167 H            1 NAD336   0.0000
    47 H4B         51.6142   -19.8756   -19.2449 H            1 NAD336   0.0000
    48 H3B         49.1501   -19.7308   -20.3458 H            1 NAD336   0.0000
    49 H5          51.6076   -20.6031   -21.4395 H            1 NAD336   0.0000
    50 H2B         48.5482   -21.8757   -20.2311 H            1 NAD336   0.0000
    51 H7          50.5618   -22.6695   -21.9644 H            1 NAD336   0.0000
    52 H1B         51.1794   -22.9198   -20.0610 H            1 NAD336   0.0000
    53 H8A         47.7406   -22.9299   -18.6084 H            1 NAD336   0.0000
    54 H6A1        48.9069   -28.6734   -16.6949 H            1 NAD336   0.0000
    55 H6A2        47.7108   -27.4289   -16.8382 H            1 NAD336   0.0000
    56 H2A         52.6770   -26.9970   -18.4733 H            1 NAD336   0.0000
    57 H5D1        51.7833   -16.6032   -14.7376 H            1 NAD336   0.0000
    58 H5D2        50.5922   -17.7131   -14.6098 H            1 NAD336   0.0000
    59 H4D         51.2670   -17.3124   -12.4439 H            1 NAD336   0.0000
    60 H3D         48.7131   -16.6266   -13.0713 H            1 NAD336   0.0000
    61 H17         50.0516   -17.4251   -10.7590 H            1 NAD336   0.0000
    62 H2D         48.8582   -14.4311   -12.6256 H            1 NAD336   0.0000
    63 H19         48.4555   -13.8783   -10.4513 H            1 NAD336   0.0000
    64 H1D         50.9393   -14.8600   -10.7085 H            1 NAD336   0.0000
    65 H2N         50.3013   -13.0704   -13.6981 H            1 NAD336   0.0000
    66 H7N1        50.2481   -10.8427   -16.3718 H            1 NAD336   0.0000
    67 H7N2        50.7149   -12.2063   -15.4113 H            1 NAD336   0.0000
    68 H4N         51.0666    -9.3952   -11.9699 H            1 NAD336   0.0000
    69 H5N         51.5030   -10.5122    -9.8935 H            1 NAD336   0.0000
    70 H6N         51.3263   -12.8934    -9.7742 H            1 NAD336   0.0000
@<TRIPOS>BOND
     1    1    2      ar
     2    1    3      ar
     3    1    4       1
     4    1   23       1
     5    4    5       1
     6    5    6       1
     7    6    7       1
     8    6    8       1
     9    7   12       1
    10    8    9       1
    11    8   10       1
    12   10   11       1
    13   10   12       1
    14   12   13       1
    15   13   14       1
    16   13   22       1
    17   14   15       2
    18   15   16       1
    19   16   17      ar
    20   16   22      ar
    21   17   18       1
    22   17   19      ar
    23   19   20      ar
    24   20   21      ar
    25   21   22      ar
    26   23   24       1
    27   24   25      ar
    28   24   26      ar
    29   24   27       1
    30   27   28       1
    31   28   29       1
    32   29   30       1
    33   29   31       1
    34   30   35       1
    35   31   32       1
    36   31   33       1
    37   33   34       1
    38   33   35       1
    39   35   36       1
    40   36   37      ar
    41   36   44      ar
    42   37   38      ar
    43   38   39       1
    44   38   42      ar
    45   39   40       2
    46   39   41      am
    47   42   43      ar
    48   43   44      ar
    49   44   70       1
    50    5   45       1
    51    5   46       1
    52    6   47       1
    53    8   48       1
    54    9   49       1
    55   10   50       1
    56   11   51       1
    57   12   52       1
    58   14   53       1
    59   18   54       1
    60   18   55       1
    61   20   56       1
    62   43   69       1
    63   28   57       1
    64   28   58       1
    65   29   59       1
    66   31   60       1
    67   32   61       1
    68   33   62       1
    69   34   63       1
    70   35   64       1
    71   37   65       1
    72   41   66       1
    73   41   67       1
    74   42   68       1
@<TRIPOS>SUBSTRUCTURE
     1 NAD336      1 GROUP             4 B     NAD     0 **** NAD B 336
