@<TRIPOS>MOLECULE
4fry_NAD_1_ligand
   70    74     1     0     0
SMALL
NO_CHARGES


@<TRIPOS>ATOM
     1 PA           5.7640    26.9830    63.0630 P.3          1 NAD201   0.0000
     2 O1A          6.8710    26.2230    63.7390 O.co2        1 NAD201   0.0000
     3 O2A          4.6450    26.1270    62.5060 O.co2        1 NAD201  -1.0000
     4 O5B          5.2430    28.1700    64.0280 O.3          1 NAD201   0.0000
     5 C5B          3.8760    28.3160    64.4740 C.3          1 NAD201   0.0000
     6 C4B          3.8280    29.0720    65.8110 C.3          1 NAD201   0.0000
     7 O4B          4.2420    28.2190    66.8780 O.3          1 NAD201   0.0000
     8 C3B          4.7910    30.2330    65.8560 C.3          1 NAD201   0.0000
     9 O3B          4.2100    31.3100    66.5840 O.3          1 NAD201   0.0000
    10 C2B          6.0250    29.6870    66.5560 C.3          1 NAD201   0.0000
    11 O2B          6.8360    30.6680    67.2150 O.3          1 NAD201   0.0000
    12 C1B          5.4370    28.6830    67.5220 C.3          1 NAD201   0.0000
    13 N9A          6.3760    27.5660    67.7910 N.pl3        1 NAD201   0.0000
    14 C8A          6.8990    26.7100    66.8860 C.2          1 NAD201   0.0000
    15 N7A          7.7340    25.8040    67.4750 N.2          1 NAD201   0.0000
    16 C5A          7.7540    26.0790    68.7950 C.ar         1 NAD201   0.0000
    17 C6A          8.4200    25.5300    70.0150 C.ar         1 NAD201   0.0000
    18 N6A          9.2570    24.4690    69.9640 N.pl3        1 NAD201   0.0000
    19 N1A          8.1580    26.1300    71.2020 N.ar         1 NAD201   0.0000
    20 C2A          7.3260    27.1880    71.2900 C.ar         1 NAD201   0.0000
    21 N3A          6.6890    27.7310    70.2360 N.ar         1 NAD201   0.0000
    22 C4A          6.8610    27.2390    68.9890 C.ar         1 NAD201   0.0000
    23 O3           6.4820    27.7730    61.8440 O.3          1 NAD201   0.0000
    24 PN           5.9270    28.9390    60.8910 P.3          1 NAD201   0.0000
    25 O1N          6.5220    28.6830    59.5250 O.co2        1 NAD201   0.0000
    26 O2N          6.0920    30.2630    61.5700 O.co2        1 NAD201  -1.0000
    27 O5D          4.4590    28.3740    60.5000 O.3          1 NAD201   0.0000
    28 C5D          3.1970    28.7220    60.9130 C.3          1 NAD201   0.0000
    29 C4D          2.3060    29.0230    59.7060 C.3          1 NAD201   0.0000
    30 O4D          1.3200    29.7810    60.3700 O.3          1 NAD201   0.0000
    31 C3D          2.8720    29.9410    58.6130 C.3          1 NAD201   0.0000
    32 O3D          2.0910    29.9780    57.4070 O.3          1 NAD201   0.0000
    33 C2D          2.8060    31.2930    59.2580 C.3          1 NAD201   0.0000
    34 O2D          2.7770    32.3670    58.3010 O.3          1 NAD201   0.0000
    35 C1D          1.5300    31.1630    60.0970 C.3          1 NAD201   0.0000
    36 N1N          1.5520    31.8750    61.3790 N.ar         1 NAD201   1.0000
    37 C2N          0.4120    32.4900    61.7290 C.ar         1 NAD201   0.0000
    38 C3N          0.3140    33.1980    62.9190 C.ar         1 NAD201   0.0000
    39 C7N         -0.9530    33.9120    63.3080 C.2          1 NAD201   0.0000
    40 O7N         -0.9330    34.5160    64.3700 O.2          1 NAD201   0.0000
    41 N7N         -2.0390    33.9360    62.5230 N.am         1 NAD201   0.0000
    42 C4N          1.4330    33.2760    63.7520 C.ar         1 NAD201   0.0000
    43 C5N          2.5990    32.6310    63.3790 C.ar         1 NAD201   0.0000
    44 C6N          2.6390    31.9220    62.1840 C.ar         1 NAD201   0.0000
    45 H5B1         3.4694    27.4101    64.5926 H            1 NAD201   0.0000
    46 H5B2         3.3580    28.8266    63.7877 H            1 NAD201   0.0000
    47 H4B          2.8981    29.3981    65.9811 H            1 NAD201   0.0000
    48 H3B          5.0214    30.5272    64.9285 H            1 NAD201   0.0000
    49 H5           4.5609    32.1778    66.2322 H            1 NAD201   0.0000
    50 H2B          6.5868    29.2004    65.8870 H            1 NAD201   0.0000
    51 H7           6.7595    31.5414    66.7340 H            1 NAD201   0.0000
    52 H1B          5.2017    29.1392    68.3802 H            1 NAD201   0.0000
    53 H8A          6.6995    26.7365    65.9065 H            1 NAD201   0.0000
    54 H6A1         9.6848    24.1289    70.8015 H            1 NAD201   0.0000
    55 H6A2         9.4481    24.0245    69.0888 H            1 NAD201   0.0000
    56 H2A          7.1734    27.5928    72.1916 H            1 NAD201   0.0000
    57 H5D1         3.2523    29.5349    61.4928 H            1 NAD201   0.0000
    58 H5D2         2.8009    27.9666    61.4349 H            1 NAD201   0.0000
    59 H4D          1.9225    28.1853    59.3171 H            1 NAD201   0.0000
    60 H3D          3.8200    29.6973    58.4082 H            1 NAD201   0.0000
    61 H17          1.4097    30.7070    57.4733 H            1 NAD201   0.0000
    62 H2D          3.5921    31.4101    59.8650 H            1 NAD201   0.0000
    63 H19          2.7333    33.2420    58.7831 H            1 NAD201   0.0000
    64 H1D          0.7588    31.5017    59.5580 H            1 NAD201   0.0000
    65 H2N         -0.3809    32.4374    61.1220 H            1 NAD201   0.0000
    66 H7N1        -2.8603    34.4227    62.8205 H            1 NAD201   0.0000
    67 H7N2        -2.0280    33.4672    61.6398 H            1 NAD201   0.0000
    68 H4N          1.3917    33.7919    64.6077 H            1 NAD201   0.0000
    69 H5N          3.4078    32.6746    63.9654 H            1 NAD201   0.0000
    70 H6N          3.4759    31.4438    61.9175 H            1 NAD201   0.0000
@<TRIPOS>BOND
     1    1    2      ar
     2    1    3      ar
     3    1    4       1
     4    1   23       1
     5    4    5       1
     6    5    6       1
     7    6    7       1
     8    6    8       1
     9    7   12       1
    10    8    9       1
    11    8   10       1
    12   10   11       1
    13   10   12       1
    14   12   13       1
    15   13   14       1
    16   13   22       1
    17   14   15       2
    18   15   16       1
    19   16   17      ar
    20   16   22      ar
    21   17   18       1
    22   17   19      ar
    23   19   20      ar
    24   20   21      ar
    25   21   22      ar
    26   23   24       1
    27   24   25      ar
    28   24   26      ar
    29   24   27       1
    30   27   28       1
    31   28   29       1
    32   29   30       1
    33   29   31       1
    34   30   35       1
    35   31   32       1
    36   31   33       1
    37   33   34       1
    38   33   35       1
    39   35   36       1
    40   36   37      ar
    41   36   44      ar
    42   37   38      ar
    43   38   39       1
    44   38   42      ar
    45   39   40       2
    46   39   41      am
    47   42   43      ar
    48   43   44      ar
    49   44   70       1
    50    5   45       1
    51    5   46       1
    52    6   47       1
    53    8   48       1
    54    9   49       1
    55   10   50       1
    56   11   51       1
    57   12   52       1
    58   14   53       1
    59   18   54       1
    60   18   55       1
    61   20   56       1
    62   43   69       1
    63   28   57       1
    64   28   58       1
    65   29   59       1
    66   31   60       1
    67   32   61       1
    68   33   62       1
    69   34   63       1
    70   35   64       1
    71   37   65       1
    72   41   66       1
    73   41   67       1
    74   42   68       1
@<TRIPOS>SUBSTRUCTURE
     1 NAD201      1 GROUP             4 A     NAD     0 **** NAD A 201
