@<TRIPOS>MOLECULE
1qy1_PRZ_1_ligand
   26    26     1     0     0
SMALL
NO_CHARGES


@<TRIPOS>ATOM
     1 N1          50.2630    22.9610    42.7300 N.ar         1 PRZ300   0.0000
     2 C2          50.2500    23.7750    41.6530 C.ar         1 PRZ300   0.0000
     3 C3          51.2160    23.5720    40.6630 C.ar         1 PRZ300   0.0000
     4 N4          52.1170    22.5790    40.8060 N.ar         1 PRZ300   0.0000
     5 C5          52.1180    21.7900    41.8710 C.ar         1 PRZ300   0.0000
     6 C6          51.1600    21.9900    42.8650 C.ar         1 PRZ300   0.0000
     7 C21         49.1490    24.8530    41.5610 C.3          1 PRZ300   0.0000
     8 C22         48.2800    24.6440    40.3120 C.3          1 PRZ300   0.0000
     9 C23         47.2020    25.7290    40.2570 C.3          1 PRZ300   0.0000
    10 C24         47.6420    23.2490    40.3070 C.3          1 PRZ300   0.0000
    11 O31         51.2340    24.4430    39.6190 O.3          1 PRZ300   0.0000
    12 C31         52.4030    24.3330    38.8150 C.3          1 PRZ300   0.0000
    13 H1          52.7966    21.0610    41.9607 H            1 PRZ300   0.0000
    14 H2          51.1483    21.4050    43.6759 H            1 PRZ300   0.0000
    15 H3          49.5774    25.7554    41.5145 H            1 PRZ300   0.0000
    16 H4          48.5704    24.8003    42.3749 H            1 PRZ300   0.0000
    17 H5          48.8605    24.7311    39.5024 H            1 PRZ300   0.0000
    18 H6          46.6350    25.5947    39.4443 H            1 PRZ300   0.0000
    19 H7          46.6302    25.6726    41.0754 H            1 PRZ300   0.0000
    20 H8          47.6365    26.6287    40.2153 H            1 PRZ300   0.0000
    21 H9          47.0833    23.1409    39.4847 H            1 PRZ300   0.0000
    22 H10         48.3607    22.5537    40.3154 H            1 PRZ300   0.0000
    23 H11         47.0661    23.1429    41.1176 H            1 PRZ300   0.0000
    24 H12         52.3573    24.9960    38.0678 H            1 PRZ300   0.0000
    25 H13         53.2110    24.5168    39.3747 H            1 PRZ300   0.0000
    26 H14         52.4622    23.4089    38.4375 H            1 PRZ300   0.0000
@<TRIPOS>BOND
     1    1    2      ar
     2    1    6      ar
     3    2    3      ar
     4    2    7       1
     5    3    4      ar
     6    3   11       1
     7    4    5      ar
     8    5    6      ar
     9    7    8       1
    10    8    9       1
    11    8   10       1
    12   11   12       1
    13    5   13       1
    14    6   14       1
    15    7   15       1
    16    7   16       1
    17    8   17       1
    18    9   18       1
    19    9   19       1
    20    9   20       1
    21   10   21       1
    22   10   22       1
    23   10   23       1
    24   12   24       1
    25   12   25       1
    26   12   26       1
@<TRIPOS>SUBSTRUCTURE
     1 PRZ300      1 GROUP             4 A     PRZ     0 **** PRZ A 300
