@<TRIPOS>MOLECULE
3vri_1KX_1_ligand
   40    43     1     0     0
SMALL
NO_CHARGES


@<TRIPOS>ATOM
     1 C           16.7480    -5.3760    43.4210 C.3          1 1KX301   0.0000
     2 N           15.5640    -7.6700    43.4630 N.pl3        1 1KX301   0.0000
     3 O           10.0950   -11.6980    41.8820 O.3          1 1KX301   0.0000
     4 C01         14.6410   -11.0260    43.2320 C.ar         1 1KX301   0.0000
     5 N01         15.7740   -11.5560    42.8440 N.ar         1 1KX301   1.0000
     6 C02         14.6010    -9.7040    43.4110 C.ar         1 1KX301   0.0000
     7 N02         13.3690    -9.3400    43.7830 N.2          1 1KX301   0.0000
     8 C03         12.6850   -10.4660    43.8000 C.2          1 1KX301   0.0000
     9 N03         13.4420   -11.5040    43.4590 N.pl3        1 1KX301   0.0000
    10 C04         13.0210   -12.9260    43.3650 C.3          1 1KX301   0.0000
    11 N04         16.8290    -9.5090    42.8900 N.ar         1 1KX301   0.0000
    12 C05         11.9990   -13.3190    44.2570 C.2          1 1KX301   0.0000
    13 N05         17.9910   -11.3530    42.3230 N.pl3        1 1KX301   0.0000
    14 C06         10.9510   -13.8030    43.6000 C.2          1 1KX301   0.0000
    15 C07         11.1280   -13.8280    42.2410 C.3          1 1KX301   0.0000
    16 C08         10.1750   -13.0060    41.3960 C.3          1 1KX301   0.0000
    17 C09         12.5170   -13.2820    42.0210 C.3          1 1KX301   0.0000
    18 C10         15.6980    -8.9610    43.2420 C.ar         1 1KX301   0.0000
    19 C11         16.8710   -10.8030    42.7030 C.ar         1 1KX301   0.0000
    20 C12         16.5020    -6.7480    43.2980 C.3          1 1KX301   0.0000
    21 C13         17.4490    -6.1480    42.4390 C.3          1 1KX301   0.0000
    22 H1          17.2337    -5.0244    44.2213 H            1 1KX301   0.0000
    23 H2          16.0534    -4.7155    43.1359 H            1 1KX301   0.0000
    24 H3          14.6712    -7.3556    43.7855 H            1 1KX301   0.0000
    25 H4          10.6884   -11.6025    42.6812 H            1 1KX301   0.0000
    26 H5          11.7164   -10.5316    44.0397 H            1 1KX301   0.0000
    27 H6          13.8227   -13.4942    43.5504 H            1 1KX301   0.0000
    28 H7          12.0568   -13.2429    45.2524 H            1 1KX301   0.0000
    29 H8          18.8124   -10.7927    42.2168 H            1 1KX301   0.0000
    30 H9          18.0282   -12.3350    42.1379 H            1 1KX301   0.0000
    31 H10         10.1162   -14.1177    44.0517 H            1 1KX301   0.0000
    32 H11         11.1005   -14.7776    41.9286 H            1 1KX301   0.0000
    33 H12         10.5047   -12.9869    40.4521 H            1 1KX301   0.0000
    34 H13          9.2668   -13.4236    41.4235 H            1 1KX301   0.0000
    35 H14         13.1023   -13.9755    41.6010 H            1 1KX301   0.0000
    36 H15         12.4853   -12.4728    41.4343 H            1 1KX301   0.0000
    37 H16         17.1358    -7.0667    44.0028 H            1 1KX301   0.0000
    38 H17         18.4237    -6.3403    42.5528 H            1 1KX301   0.0000
    39 H18         17.2434    -6.0314    41.4673 H            1 1KX301   0.0000
    40 H19         15.8199   -12.5361    42.6506 H            1 1KX301   0.0000
@<TRIPOS>BOND
     1    1   20       1
     2    1   21       1
     3    2   18       1
     4    2   20       1
     5    3   16       1
     6    4    5      ar
     7    4    6      ar
     8    4    9       1
     9    5   19      ar
    10    6    7       1
    11    6   18      ar
    12    7    8       2
    13    8    9       1
    14    9   10       1
    15   10   12       1
    16   10   17       1
    17   11   18      ar
    18   11   19      ar
    19   12   14       2
    20   13   19       1
    21   14   15       1
    22   15   16       1
    23   15   17       1
    24   20   21       1
    25    1   22       1
    26    1   23       1
    27    2   24       1
    28    3   25       1
    29    8   26       1
    30   10   27       1
    31   12   28       1
    32   13   29       1
    33   13   30       1
    34   14   31       1
    35   15   32       1
    36   16   33       1
    37   16   34       1
    38   17   35       1
    39   17   36       1
    40   20   37       1
    41   21   38       1
    42   21   39       1
    43    5   40       1
@<TRIPOS>SUBSTRUCTURE
     1 1KX301      1 GROUP             4 A     1KX     0 **** 1KX A 301
