@<TRIPOS>MOLECULE
3h4l_ANP_1_ligand
   45    47     1     0     0
SMALL
NO_CHARGES


@<TRIPOS>ATOM
     1 PG          40.2040     6.7160    14.7790 P.3          1 ANP397   0.0000
     2 O1G         38.8550     6.1690    14.6460 O.co2        1 ANP397   0.0000
     3 O2G         40.9890     6.5950    13.5690 O.co2        1 ANP397  -1.0000
     4 O3G         40.2510     8.1210    15.2840 O.co2        1 ANP397  -1.0000
     5 PB          40.8970     4.2170    16.0310 P.3          1 ANP397   0.0000
     6 O1B         41.9680     3.8140    16.9750 O.co2        1 ANP397   0.0000
     7 O2B         40.8740     3.4880    14.7670 O.co2        1 ANP397  -1.0000
     8 N3B         40.9560     5.8190    15.8920 N.3          1 ANP397   0.0000
     9 PA          38.2070     3.1090    16.4200 P.3          1 ANP397   0.0000
    10 O1A         37.8530     3.3790    15.0320 O.co2        1 ANP397   0.0000
    11 O2A         37.1610     3.2020    17.4680 O.co2        1 ANP397  -1.0000
    12 O3A         39.5130     3.9760    16.7940 O.3          1 ANP397   0.0000
    13 O5'         38.5990     1.5490    16.6190 O.3          1 ANP397   0.0000
    14 C5'         39.7960     1.3300    17.3120 C.3          1 ANP397   0.0000
    15 C4'         40.5020     0.0670    17.6670 C.3          1 ANP397   0.0000
    16 O4'         39.7260    -1.0790    17.3070 O.3          1 ANP397   0.0000
    17 C3'         41.6300     0.1820    16.7090 C.3          1 ANP397   0.0000
    18 O3'         42.6450     1.0470    17.2530 O.3          1 ANP397   0.0000
    19 C2'         41.9750    -1.2760    16.4350 C.3          1 ANP397   0.0000
    20 O2'         42.9440    -1.7210    17.3680 O.3          1 ANP397   0.0000
    21 C1'         40.5790    -1.9370    16.5480 C.3          1 ANP397   0.0000
    22 N9          39.8440    -2.2050    15.2760 N.pl3        1 ANP397   0.0000
    23 C8          38.6640    -1.6760    14.7580 C.2          1 ANP397   0.0000
    24 N7          38.2810    -2.1230    13.6020 N.2          1 ANP397   0.0000
    25 C5          39.2710    -3.0390    13.3030 C.ar         1 ANP397   0.0000
    26 C6          39.5310    -3.9160    12.1840 C.ar         1 ANP397   0.0000
    27 N6          38.6990    -3.9800    11.1460 N.pl3        1 ANP397   0.0000
    28 N1          40.6580    -4.7430    12.1730 N.ar         1 ANP397   1.0000
    29 C2          41.5350    -4.7060    13.2300 C.ar         1 ANP397   0.0000
    30 N3          41.3790    -3.9100    14.3280 N.ar         1 ANP397   0.0000
    31 C4          40.2550    -3.1010    14.3070 C.ar         1 ANP397   0.0000
    32 H3B         41.9267     6.0350    15.7871 H            1 ANP397   0.0000
    33 H5'1        39.6476     1.7776    18.1939 H            1 ANP397   0.0000
    34 H5'2        40.4743     1.8442    16.7871 H            1 ANP397   0.0000
    35 H4'         40.8038     0.0466    18.6202 H            1 ANP397   0.0000
    36 H3'         41.2864     0.5902    15.8632 H            1 ANP397   0.0000
    37 H6          42.4623     1.9904    16.9764 H            1 ANP397   0.0000
    38 H2'         42.3260    -1.3752    15.5039 H            1 ANP397   0.0000
    39 H8          43.1679    -2.6783    17.1851 H            1 ANP397   0.0000
    40 H1'         40.6782    -2.8005    17.0426 H            1 ANP397   0.0000
    41 H10         38.1376    -0.9850    15.2534 H            1 ANP397   0.0000
    42 H11         38.8986    -4.5940    10.3823 H            1 ANP397   0.0000
    43 H12         37.8747    -3.4141    11.1303 H            1 ANP397   0.0000
    44 H13         42.3387    -5.2999    13.1926 H            1 ANP397   0.0000
    45 H14         40.8247    -5.3570    11.4015 H            1 ANP397   0.0000
@<TRIPOS>BOND
     1    1    2      ar
     2    1    3      ar
     3    1    4      ar
     4    1    8       1
     5    5    6      ar
     6    5    7      ar
     7    5    8       1
     8    5   12       1
     9    9   10      ar
    10    9   11      ar
    11    9   12       1
    12    9   13       1
    13   13   14       1
    14   14   15       1
    15   15   16       1
    16   15   17       1
    17   16   21       1
    18   17   18       1
    19   17   19       1
    20   19   20       1
    21   19   21       1
    22   21   22       1
    23   22   23       1
    24   22   31       1
    25   23   24       2
    26   24   25       1
    27   25   26      ar
    28   25   31      ar
    29   26   27       1
    30   26   28      ar
    31   28   29      ar
    32   29   30      ar
    33   30   31      ar
    34   29   44       1
    35   27   43       1
    36   27   42       1
    37    8   32       1
    38   23   41       1
    39   14   33       1
    40   14   34       1
    41   15   35       1
    42   17   36       1
    43   18   37       1
    44   19   38       1
    45   20   39       1
    46   21   40       1
    47   28   45       1
@<TRIPOS>SUBSTRUCTURE
     1 ANP397      1 GROUP             4 A     ANP     0 **** ANP A 397
