@<TRIPOS>MOLECULE
3c1m_ANP_4_ligand
   44    46     1     0     0
SMALL
NO_CHARGES


@<TRIPOS>ATOM
     1 PG         -37.1160    16.2720    40.5020 P.3          1 ANP473   0.0000
     2 O1G        -36.4380    15.2950    41.4380 O.co2        1 ANP473   0.0000
     3 O2G        -36.3790    17.5960    40.4300 O.co2        1 ANP473  -1.0000
     4 O3G        -37.5050    15.6450    39.2050 O.co2        1 ANP473  -1.0000
     5 PB         -38.8070    17.2090    42.8250 P.3          1 ANP473   0.0000
     6 O1B        -39.5960    18.4920    42.8000 O.co2        1 ANP473   0.0000
     7 O2B        -37.4380    17.2240    43.4800 O.co2        1 ANP473  -1.0000
     8 N3B        -38.6720    16.6800    41.1850 N.3          1 ANP473   0.0000
     9 PA         -39.2440    14.7930    44.3270 P.3          1 ANP473   0.0000
    10 O1A        -37.7730    14.6340    44.0730 O.co2        1 ANP473   0.0000
    11 O2A        -40.2060    13.7000    43.9360 O.co2        1 ANP473  -1.0000
    12 O3A        -39.7450    16.1360    43.6020 O.3          1 ANP473   0.0000
    13 O5'        -39.3980    15.0220    45.9060 O.3          1 ANP473   0.0000
    14 C5'        -40.6080    15.5720    46.4530 C.3          1 ANP473   0.0000
    15 C4'        -41.3180    14.3980    47.0910 C.3          1 ANP473   0.0000
    16 O4'        -40.5720    14.0280    48.2340 O.3          1 ANP473   0.0000
    17 C3'        -42.7230    14.6490    47.6050 C.3          1 ANP473   0.0000
    18 O3'        -43.6950    14.3270    46.6050 O.3          1 ANP473   0.0000
    19 C2'        -42.8320    13.7380    48.8090 C.3          1 ANP473   0.0000
    20 O2'        -43.6570    12.6040    48.5310 O.3          1 ANP473   0.0000
    21 C1'        -41.4140    13.2320    49.0530 C.3          1 ANP473   0.0000
    22 N9         -40.9780    13.3680    50.4600 N.pl3        1 ANP473   0.0000
    23 C8         -40.2620    12.4480    51.1290 C.2          1 ANP473   0.0000
    24 N7         -40.0040    12.8570    52.3940 N.2          1 ANP473   0.0000
    25 C5         -40.5600    14.0770    52.5420 C.ar         1 ANP473   0.0000
    26 C6         -40.6510    15.0770    53.6150 C.ar         1 ANP473   0.0000
    27 N6         -40.1060    14.8400    54.8280 N.pl3        1 ANP473   0.0000
    28 N1         -41.3010    16.2270    53.3570 N.ar         1 ANP473   0.0000
    29 C2         -41.8690    16.4870    52.1660 C.ar         1 ANP473   0.0000
    30 N3         -41.8110    15.6130    51.1470 N.ar         1 ANP473   0.0000
    31 C4         -41.1990    14.4120    51.2690 C.ar         1 ANP473   0.0000
    32 H3B        -39.2434    15.8637    41.1006 H            1 ANP473   0.0000
    33 H5'1       -41.1706    15.9722    45.7296 H            1 ANP473   0.0000
    34 H5'2       -40.3987    16.2704    47.1374 H            1 ANP473   0.0000
    35 H4'        -41.3346    13.6334    46.4467 H            1 ANP473   0.0000
    36 H3'        -42.8213    15.6037    47.8858 H            1 ANP473   0.0000
    37 H6         -43.8817    15.1367    46.0486 H            1 ANP473   0.0000
    38 H2'        -43.1726    14.2392    49.6045 H            1 ANP473   0.0000
    39 H8         -43.7095    12.0228    49.3431 H            1 ANP473   0.0000
    40 H1'        -41.3468    12.2746    48.7723 H            1 ANP473   0.0000
    41 H10        -39.9596    11.5763    50.7434 H            1 ANP473   0.0000
    42 H11        -40.1746    15.5284    55.5501 H            1 ANP473   0.0000
    43 H12        -39.6340    13.9761    55.0039 H            1 ANP473   0.0000
    44 H13        -42.3479    17.3550    52.0351 H            1 ANP473   0.0000
@<TRIPOS>BOND
     1    1    2      ar
     2    1    3      ar
     3    1    4      ar
     4    1    8       1
     5    5    6      ar
     6    5    7      ar
     7    5    8       1
     8    5   12       1
     9    9   10      ar
    10    9   11      ar
    11    9   12       1
    12    9   13       1
    13   13   14       1
    14   14   15       1
    15   15   16       1
    16   15   17       1
    17   16   21       1
    18   17   18       1
    19   17   19       1
    20   19   20       1
    21   19   21       1
    22   21   22       1
    23   22   23       1
    24   22   31       1
    25   23   24       2
    26   24   25       1
    27   25   26      ar
    28   25   31      ar
    29   26   27       1
    30   26   28      ar
    31   28   29      ar
    32   29   30      ar
    33   30   31      ar
    34   29   44       1
    35   27   43       1
    36   27   42       1
    37    8   32       1
    38   23   41       1
    39   14   33       1
    40   14   34       1
    41   15   35       1
    42   17   36       1
    43   18   37       1
    44   19   38       1
    45   20   39       1
    46   21   40       1
@<TRIPOS>SUBSTRUCTURE
     1 ANP473      1 GROUP             4 D     ANP     0 **** ANP D 473
