@<TRIPOS>MOLECULE
4fkx_CDP_3_ligand
   37    38     1     0     0
SMALL
NO_CHARGES


@<TRIPOS>ATOM
     1 O3B          8.4170    43.8930    47.6560 O.co2        1 CDP201   0.0000
     2 PB           9.4110    42.8640    47.1860 P.3          1 CDP201   0.0000
     3 O1B          9.8050    43.0290    45.7580 O.co2        1 CDP201  -1.0000
     4 O2B          9.0120    41.4750    47.6450 O.co2        1 CDP201  -1.0000
     5 O3A         10.7380    43.0630    48.1050 O.3          1 CDP201   0.0000
     6 PA          11.4760    44.4150    48.5360 P.3          1 CDP201   0.0000
     7 O1A         10.5650    45.5820    48.2920 O.co2        1 CDP201   0.0000
     8 O2A         12.0030    44.2130    49.9290 O.co2        1 CDP201  -1.0000
     9 O5'         12.7670    44.5510    47.6100 O.3          1 CDP201   0.0000
    10 C5'         12.6930    45.2520    46.3770 C.3          1 CDP201   0.0000
    11 C4'         13.4890    44.5010    45.3310 C.3          1 CDP201   0.0000
    12 O4'         14.8590    44.5810    45.6780 O.3          1 CDP201   0.0000
    13 C3'         13.1940    43.0110    45.2520 C.3          1 CDP201   0.0000
    14 O3'         12.0240    42.7630    44.4640 O.3          1 CDP201   0.0000
    15 C2'         14.4800    42.4730    44.6610 C.3          1 CDP201   0.0000
    16 O2'         14.4180    42.5370    43.2310 O.3          1 CDP201   0.0000
    17 C1'         15.5450    43.4380    45.1550 C.3          1 CDP201   0.0000
    18 N1          16.3030    42.8360    46.2470 N.pl3        1 CDP201   0.0000
    19 C2          17.6220    42.3980    46.0260 C.2          1 CDP201   0.0000
    20 O2          18.1280    42.5420    44.9130 O.2          1 CDP201   0.0000
    21 N3          18.3160    41.8270    47.0250 N.2          1 CDP201   0.0000
    22 C4          17.7520    41.6760    48.2260 C.2          1 CDP201   0.0000
    23 N4          18.4630    41.0960    49.2250 N.pl3        1 CDP201   0.0000
    24 C5          16.4470    42.0820    48.4670 C.2          1 CDP201   0.0000
    25 C6          15.7290    42.6670    47.4440 C.2          1 CDP201   0.0000
    26 H5'1        13.0722    46.1703    46.4907 H            1 CDP201   0.0000
    27 H5'2        11.7384    45.3191    46.0868 H            1 CDP201   0.0000
    28 H4'         13.3447    44.9199    44.4345 H            1 CDP201   0.0000
    29 H3'         13.0654    42.6428    46.1728 H            1 CDP201   0.0000
    30 H5          11.2169    42.7702    45.0543 H            1 CDP201   0.0000
    31 H2'         14.6614    41.5410    44.9748 H            1 CDP201   0.0000
    32 H7          14.9665    41.7978    42.8402 H            1 CDP201   0.0000
    33 H1'         16.1540    43.7037    44.4076 H            1 CDP201   0.0000
    34 H9          18.0510    40.9777    50.1285 H            1 CDP201   0.0000
    35 H10         19.3992    40.7867    49.0580 H            1 CDP201   0.0000
    36 H11         16.0333    41.9526    49.3682 H            1 CDP201   0.0000
    37 H12         14.7859    42.9627    47.5961 H            1 CDP201   0.0000
@<TRIPOS>BOND
     1    1    2      ar
     2    2    3      ar
     3    2    4      ar
     4    2    5       1
     5    5    6       1
     6    6    7      ar
     7    6    8      ar
     8    6    9       1
     9    9   10       1
    10   10   11       1
    11   11   12       1
    12   11   13       1
    13   12   17       1
    14   13   14       1
    15   13   15       1
    16   15   16       1
    17   15   17       1
    18   17   18       1
    19   18   19       1
    20   18   25       1
    21   19   20       2
    22   19   21       1
    23   21   22       2
    24   22   23       1
    25   22   24       1
    26   24   25       2
    27   25   37       1
    28   24   36       1
    29   23   35       1
    30   10   26       1
    31   10   27       1
    32   11   28       1
    33   13   29       1
    34   14   30       1
    35   15   31       1
    36   16   32       1
    37   17   33       1
    38   23   34       1
@<TRIPOS>SUBSTRUCTURE
     1 CDP201      1 GROUP             4 C     CDP     0 **** CDP C 201
