@<TRIPOS>MOLECULE
1fdr_FAD_1_ligand
   82    87     1     0     0
SMALL
NO_CHARGES


@<TRIPOS>ATOM
     1 PA          23.3750    22.1210    26.5560 P.3          1 FAD249   0.0000
     2 O1A         23.5850    21.7540    27.9530 O.co2        1 FAD249   0.0000
     3 O2A         21.9550    21.8500    25.9860 O.co2        1 FAD249  -1.0000
     4 O5B         24.3340    21.4120    25.4430 O.3          1 FAD249   0.0000
     5 C5B         25.7500    21.3900    25.6940 C.3          1 FAD249   0.0000
     6 C4B         26.4760    21.0900    24.4010 C.3          1 FAD249   0.0000
     7 O4B         26.8010    22.3920    23.8380 O.3          1 FAD249   0.0000
     8 C3B         27.7910    20.3800    24.7690 C.3          1 FAD249   0.0000
     9 O3B         27.8420    19.0340    24.3240 O.3          1 FAD249   0.0000
    10 C2B         28.7760    21.0910    23.8510 C.3          1 FAD249   0.0000
    11 O2B         28.9950    20.3950    22.6240 O.3          1 FAD249   0.0000
    12 C1B         28.2270    22.4500    23.5510 C.3          1 FAD249   0.0000
    13 N9A         28.9040    23.3410    24.4830 N.pl3        1 FAD249   0.0000
    14 C8A         28.8040    23.3730    25.8180 C.2          1 FAD249   0.0000
    15 N7A         29.4280    24.4720    26.2910 N.2          1 FAD249   0.0000
    16 C5A         29.9680    25.1010    25.2430 C.ar         1 FAD249   0.0000
    17 C6A         30.9800    26.1590    25.2290 C.ar         1 FAD249   0.0000
    18 N6A         31.5440    26.8520    26.2470 N.pl3        1 FAD249   0.0000
    19 N1A         31.4040    26.4650    23.9640 N.ar         1 FAD249   0.0000
    20 C2A         30.9560    25.8560    22.8590 C.ar         1 FAD249   0.0000
    21 N3A         30.1040    24.8300    22.9220 N.ar         1 FAD249   0.0000
    22 C4A         29.6100    24.4060    24.0990 C.ar         1 FAD249   0.0000
    23 N1          30.2060    27.9280    29.0860 N.2          1 FAD249   0.0000
    24 C2          30.4190    29.2420    28.7460 C.2          1 FAD249   0.0000
    25 O2          30.2060    29.6590    27.6530 O.2          1 FAD249   0.0000
    26 N3          31.0540    30.0250    29.6560 N.pl3        1 FAD249   0.0000
    27 C4          31.5610    29.5890    30.8880 C.2          1 FAD249   0.0000
    28 O4          31.9600    30.5010    31.5530 O.2          1 FAD249   0.0000
    29 C4X         31.3980    28.2210    31.1440 C.2          1 FAD249   0.0000
    30 N5          32.0250    27.6870    32.2390 N.2          1 FAD249   0.0000
    31 C5X         31.9810    26.3510    32.3890 C.ar         1 FAD249   0.0000
    32 C6          32.5840    25.9510    33.5020 C.ar         1 FAD249   0.0000
    33 C7          32.5540    24.6330    33.7610 C.ar         1 FAD249   0.0000
    34 C7M         33.3390    24.1740    34.9930 C.3          1 FAD249   0.0000
    35 C8          31.7740    23.7400    33.0250 C.ar         1 FAD249   0.0000
    36 C8M         31.7490    22.2240    33.2670 C.3          1 FAD249   0.0000
    37 C9          31.0480    24.1900    31.9410 C.ar         1 FAD249   0.0000
    38 C9A         31.1820    25.5070    31.6180 C.ar         1 FAD249   0.0000
    39 N10         30.5540    26.0580    30.5280 N.pl3        1 FAD249   0.0000
    40 C10         30.6840    27.3700    30.2600 C.2          1 FAD249   0.0000
    41 C1'         29.7390    25.3090    29.6850 C.3          1 FAD249   0.0000
    42 C2'         28.2410    25.4450    30.2390 C.3          1 FAD249   0.0000
    43 O2'         27.9810    25.1670    31.6010 O.3          1 FAD249   0.0000
    44 C3'         27.1010    25.0880    29.4020 C.3          1 FAD249   0.0000
    45 O3'         27.2750    23.7710    29.0660 O.3          1 FAD249   0.0000
    46 C4'         26.6000    25.9810    28.4010 C.2          1 FAD249   0.0000
    47 O4'         26.5860    27.3320    28.3880 O.2          1 FAD249   0.0000
    48 C5'         25.7500    25.3890    27.2730 C.3          1 FAD249   0.0000
    49 O5'         24.6000    25.0100    27.9890 O.3          1 FAD249   0.0000
    50 P           23.1870    24.8770    27.1800 P.3          1 FAD249   0.0000
    51 O1P         22.2360    24.5110    28.3120 O.co2        1 FAD249   0.0000
    52 O2P         23.0610    26.0180    26.3020 O.co2        1 FAD249  -1.0000
    53 O3P         23.6810    23.6520    26.4420 O.3          1 FAD249   0.0000
    54 H5B1        25.9598    20.6819    26.3682 H            1 FAD249   0.0000
    55 H5B2        26.0422    22.2802    26.0436 H            1 FAD249   0.0000
    56 H4B         25.9178    20.5424    23.7777 H            1 FAD249   0.0000
    57 H3B         28.0251    20.4766    25.7364 H            1 FAD249   0.0000
    58 H5          28.2350    19.0014    23.4051 H            1 FAD249   0.0000
    59 H2B         29.6494    21.1916    24.3275 H            1 FAD249   0.0000
    60 H7          29.9631    20.1578    22.5435 H            1 FAD249   0.0000
    61 H1B         28.3992    22.7133    22.6018 H            1 FAD249   0.0000
    62 H8A         28.3385    22.6878    26.3782 H            1 FAD249   0.0000
    63 H6A1        32.2315    27.5523    26.0547 H            1 FAD249   0.0000
    64 H6A2        31.2729    26.6633    27.1909 H            1 FAD249   0.0000
    65 H2A         31.2671    26.1775    21.9647 H            1 FAD249   0.0000
    66 H13         31.1693    30.9919    29.4285 H            1 FAD249   0.0000
    67 H14         33.0372    26.5973    34.1159 H            1 FAD249   0.0000
    68 H7M1        33.2512    23.1830    35.0941 H            1 FAD249   0.0000
    69 H7M2        34.3035    24.4136    34.8820 H            1 FAD249   0.0000
    70 H7M3        32.9750    24.6257    35.8075 H            1 FAD249   0.0000
    71 H8M1        31.1190    21.7936    32.6206 H            1 FAD249   0.0000
    72 H8M2        32.6673    21.8504    33.1364 H            1 FAD249   0.0000
    73 H8M3        31.4444    22.0406    34.2017 H            1 FAD249   0.0000
    74 H21         30.4529    23.5796    31.4183 H            1 FAD249   0.0000
    75 H1'1        30.0232    24.3503    29.6952 H            1 FAD249   0.0000
    76 H1'2        29.7933    25.6629    28.7513 H            1 FAD249   0.0000
    77 H2'         28.1475    26.4406    30.2441 H            1 FAD249   0.0000
    78 H25         28.5160    25.7863    32.1756 H            1 FAD249   0.0000
    79 H3'         26.3485    25.0499    30.0595 H            1 FAD249   0.0000
    80 H27         27.7995    23.7101    28.2168 H            1 FAD249   0.0000
    81 H5'1        26.1968    24.6014    26.8487 H            1 FAD249   0.0000
    82 H5'2        25.5403    26.0708    26.5722 H            1 FAD249   0.0000
@<TRIPOS>BOND
     1    1    2      ar
     2    1    3      ar
     3    1    4       1
     4    1   53       1
     5    4    5       1
     6    5    6       1
     7    6    7       1
     8    6    8       1
     9    7   12       1
    10    8    9       1
    11    8   10       1
    12   10   11       1
    13   10   12       1
    14   12   13       1
    15   13   14       1
    16   13   22       1
    17   14   15       2
    18   15   16       1
    19   16   17      ar
    20   16   22      ar
    21   17   18       1
    22   17   19      ar
    23   19   20      ar
    24   20   21      ar
    25   21   22      ar
    26   23   24       1
    27   23   40       2
    28   24   25       2
    29   24   26       1
    30   26   27       1
    31   27   28       2
    32   27   29       1
    33   29   30       2
    34   29   40       1
    35   30   31       1
    36   31   32      ar
    37   31   38      ar
    38   32   33      ar
    39   33   34       1
    40   33   35      ar
    41   35   36       1
    42   35   37      ar
    43   37   38      ar
    44   38   39       1
    45   39   40       1
    46   39   41       1
    47   41   42       1
    48   42   43       1
    49   42   44       1
    50   44   45       1
    51   44   46       1
    52   46   47       2
    53   46   48       1
    54   48   49       1
    55   49   50       1
    56   50   51      ar
    57   50   52      ar
    58   50   53       1
    59   48   82       1
    60    5   54       1
    61    5   55       1
    62    6   56       1
    63    8   57       1
    64    9   58       1
    65   10   59       1
    66   11   60       1
    67   12   61       1
    68   14   62       1
    69   18   63       1
    70   18   64       1
    71   20   65       1
    72   26   66       1
    73   32   67       1
    74   34   68       1
    75   34   69       1
    76   34   70       1
    77   36   71       1
    78   36   72       1
    79   36   73       1
    80   37   74       1
    81   41   75       1
    82   41   76       1
    83   42   77       1
    84   43   78       1
    85   44   79       1
    86   45   80       1
    87   48   81       1
@<TRIPOS>SUBSTRUCTURE
     1 FAD249      1 GROUP             4 A     FAD     0 **** FAD A 249
