@<TRIPOS>MOLECULE
1x7d_NAD_2_ligand
   73    77     1     0     0
SMALL
NO_CHARGES


@<TRIPOS>ATOM
     1 PA          -4.8320    37.5600    13.8050 P.3          1 NAD1301   0.0000
     2 O1A         -4.6840    38.2130    12.4830 O.co2        1 NAD1301   0.0000
     3 O2A         -4.9760    38.4010    15.0280 O.co2        1 NAD1301  -1.0000
     4 O5B         -6.0570    36.5660    13.6700 O.3          1 NAD1301   0.0000
     5 C5B         -6.4950    35.7310    14.7870 C.3          1 NAD1301   0.0000
     6 C4B         -8.0050    35.6280    14.7180 C.3          1 NAD1301   0.0000
     7 O4B         -8.4890    34.8310    15.7770 O.3          1 NAD1301   0.0000
     8 C3B         -8.8030    36.9870    14.8310 C.3          1 NAD1301   0.0000
     9 O3B         -9.4870    37.2770    13.5750 O.3          1 NAD1301   0.0000
    10 C2B         -9.7410    36.8090    16.0110 C.3          1 NAD1301   0.0000
    11 O2B        -10.9760    37.4510    15.9650 O.3          1 NAD1301   0.0000
    12 C1B         -9.7940    35.2800    16.0790 C.3          1 NAD1301   0.0000
    13 N9A        -10.0980    34.8010    17.4150 N.pl3        1 NAD1301   0.0000
    14 C8A         -9.6280    35.1370    18.6810 C.2          1 NAD1301   0.0000
    15 N7A        -10.1870    34.4350    19.6550 N.2          1 NAD1301   0.0000
    16 C5A        -11.0600    33.5940    19.0800 C.ar         1 NAD1301   0.0000
    17 C6A        -11.9760    32.5730    19.6150 C.ar         1 NAD1301   0.0000
    18 N6A        -12.0730    32.3140    20.9030 N.pl3        1 NAD1301   0.0000
    19 N1A        -12.7240    31.9070    18.6570 N.ar         1 NAD1301   0.0000
    20 C2A        -12.6740    32.1220    17.3280 C.ar         1 NAD1301   0.0000
    21 N3A        -11.8190    33.0830    16.7660 N.ar         1 NAD1301   0.0000
    22 C4A        -11.0310    33.7960    17.6790 C.ar         1 NAD1301   0.0000
    23 O3          -3.5810    36.6000    14.0680 O.3          1 NAD1301   0.0000
    24 PN          -2.7390    35.5920    13.0890 P.3          1 NAD1301   0.0000
    25 O1N         -1.5810    36.3240    12.5290 O.co2        1 NAD1301   0.0000
    26 O2N         -3.7390    34.9810    12.1640 O.co2        1 NAD1301  -1.0000
    27 O5D         -2.1720    34.5270    14.1540 O.3          1 NAD1301   0.0000
    28 C5D         -3.0970    33.6440    14.8530 C.3          1 NAD1301   0.0000
    29 C4D         -2.3720    32.9190    15.9140 C.3          1 NAD1301   0.0000
    30 O4D         -1.2460    32.1430    15.3030 O.3          1 NAD1301   0.0000
    31 C3D         -1.6950    33.8600    16.9780 C.3          1 NAD1301   0.0000
    32 O3D         -2.0420    33.4710    18.3150 O.3          1 NAD1301   0.0000
    33 C2D         -0.1900    33.6970    16.7250 C.3          1 NAD1301   0.0000
    34 O2D          0.6090    33.9240    17.8510 O.3          1 NAD1301   0.0000
    35 C1D         -0.0910    32.2390    16.1650 C.3          1 NAD1301   0.0000
    36 N1N          1.2010    32.0360    15.4310 N.pl3        1 NAD1301   0.0000
    37 C2N          1.7240    30.6820    15.4660 C.2          1 NAD1301   0.0000
    38 C3N          2.5930    30.2150    14.5540 C.2          1 NAD1301   0.0000
    39 C7N          3.1370    28.8000    14.6260 C.2          1 NAD1301   0.0000
    40 O7N          4.1740    28.5330    13.9810 O.2          1 NAD1301   0.0000
    41 N7N          2.5100    27.8820    15.3720 N.am         1 NAD1301   0.0000
    42 C4N          3.0650    31.1080    13.4120 C.3          1 NAD1301   0.0000
    43 C5N          1.9380    32.0400    13.0400 C.3          1 NAD1301   0.0000
    44 C6N          1.3120    32.7010    14.1300 C.3          1 NAD1301   0.0000
    45 H5B1        -6.2210    36.1491    15.6531 H            1 NAD1301   0.0000
    46 H5B2        -6.0875    34.8209    14.7126 H            1 NAD1301   0.0000
    47 H4B         -8.2518    35.1884    13.8544 H            1 NAD1301   0.0000
    48 H3B         -8.1613    37.7271    15.0322 H            1 NAD1301   0.0000
    49 H5         -10.1276    36.5381    13.3660 H            1 NAD1301   0.0000
    50 H2B         -9.2631    37.1314    16.8281 H            1 NAD1301   0.0000
    51 H7         -11.6499    36.8473    15.5391 H            1 NAD1301   0.0000
    52 H1B        -10.4522    34.9205    15.4175 H            1 NAD1301   0.0000
    53 H8A         -8.9352    35.8404    18.8399 H            1 NAD1301   0.0000
    54 H6A1       -12.7081    31.6121    21.2254 H            1 NAD1301   0.0000
    55 H6A2       -11.5115    32.8193    21.5583 H            1 NAD1301   0.0000
    56 H2A        -13.2620    31.5823    16.7255 H            1 NAD1301   0.0000
    57 H5D1        -3.4859    32.9881    14.2061 H            1 NAD1301   0.0000
    58 H5D2        -3.8320    34.1856    15.2609 H            1 NAD1301   0.0000
    59 H4D         -2.9980    32.2904    16.3755 H            1 NAD1301   0.0000
    60 H3D         -1.9674    34.8086    16.8170 H            1 NAD1301   0.0000
    61 H17         -2.9516    33.0556    18.3158 H            1 NAD1301   0.0000
    62 H2D          0.0838    34.3349    16.0052 H            1 NAD1301   0.0000
    63 H19          1.1326    33.0981    18.0602 H            1 NAD1301   0.0000
    64 H1D         -0.1667    31.5795    16.9129 H            1 NAD1301   0.0000
    65 H2N          1.4249    30.0716    16.1995 H            1 NAD1301   0.0000
    66 H7N1         2.8666    26.9490    15.4210 H            1 NAD1301   0.0000
    67 H7N2         1.6851    28.1293    15.8803 H            1 NAD1301   0.0000
    68 H4N1         3.3124    30.5453    12.6232 H            1 NAD1301   0.0000
    69 H4N2         3.8600    31.6392    13.7049 H            1 NAD1301   0.0000
    70 H5N1         1.2411    31.5063    12.5610 H            1 NAD1301   0.0000
    71 H5N2         2.3046    32.7380    12.4248 H            1 NAD1301   0.0000
    72 H6N1         1.8202    33.5486    14.2826 H            1 NAD1301   0.0000
    73 H6N2         0.3807    32.9187    13.8379 H            1 NAD1301   0.0000
@<TRIPOS>BOND
     1    1    2      ar
     2    1    3      ar
     3    1    4       1
     4    1   23       1
     5    4    5       1
     6    5    6       1
     7    6    7       1
     8    6    8       1
     9    7   12       1
    10    8    9       1
    11    8   10       1
    12   10   11       1
    13   10   12       1
    14   12   13       1
    15   13   14       1
    16   13   22       1
    17   14   15       2
    18   15   16       1
    19   16   17      ar
    20   16   22      ar
    21   17   18       1
    22   17   19      ar
    23   19   20      ar
    24   20   21      ar
    25   21   22      ar
    26   23   24       1
    27   24   25      ar
    28   24   26      ar
    29   24   27       1
    30   27   28       1
    31   28   29       1
    32   29   30       1
    33   29   31       1
    34   30   35       1
    35   31   32       1
    36   31   33       1
    37   33   34       1
    38   33   35       1
    39   35   36       1
    40   36   37       1
    41   36   44       1
    42   37   38       2
    43   38   39       1
    44   38   42       1
    45   39   40       2
    46   39   41      am
    47   42   43       1
    48   43   44       1
    49   44   73       1
    50    5   45       1
    51    5   46       1
    52    6   47       1
    53    8   48       1
    54    9   49       1
    55   10   50       1
    56   11   51       1
    57   12   52       1
    58   14   53       1
    59   18   54       1
    60   18   55       1
    61   20   56       1
    62   44   72       1
    63   28   57       1
    64   28   58       1
    65   29   59       1
    66   31   60       1
    67   32   61       1
    68   33   62       1
    69   34   63       1
    70   35   64       1
    71   37   65       1
    72   41   66       1
    73   41   67       1
    74   42   68       1
    75   42   69       1
    76   43   70       1
    77   43   71       1
@<TRIPOS>SUBSTRUCTURE
     1 NAD1301     1 GROUP             4 B     NAD     0 **** NAD B1301
