@<TRIPOS>MOLECULE
3b1x_GNP_2_ligand
   45    47     1     0     0
SMALL
NO_CHARGES


@<TRIPOS>ATOM
     1 PG         -31.4320    12.6190   -48.9910 P.3          1 GNP300   0.0000
     2 O1G        -30.6180    12.5160   -50.2240 O.co2        1 GNP300   0.0000
     3 O2G        -30.9490    11.5460   -47.8720 O.co2        1 GNP300  -1.0000
     4 O3G        -32.9730    12.2260   -49.2400 O.co2        1 GNP300  -1.0000
     5 N3B        -31.4260    14.0680   -48.2290 N.3          1 GNP300   0.0000
     6 PB         -31.8110    15.3820   -49.1400 P.3          1 GNP300   0.0000
     7 O1B        -30.7550    15.7350   -50.1320 O.co2        1 GNP300   0.0000
     8 O2B        -33.2110    15.0480   -49.8900 O.co2        1 GNP300  -1.0000
     9 O3A        -32.0150    16.5880   -48.1560 O.3          1 GNP300   0.0000
    10 PA         -33.4120    17.0690   -47.5100 P.3          1 GNP300   0.0000
    11 O1A        -34.3640    17.5890   -48.5200 O.co2        1 GNP300   0.0000
    12 O2A        -34.0050    15.7640   -46.7330 O.co2        1 GNP300  -1.0000
    13 O5'        -32.8840    18.1930   -46.5180 O.3          1 GNP300   0.0000
    14 C5'        -32.0030    17.8990   -45.4190 C.3          1 GNP300   0.0000
    15 C4'        -32.2050    18.8930   -44.2280 C.3          1 GNP300   0.0000
    16 O4'        -31.6770    20.1910   -44.6170 O.3          1 GNP300   0.0000
    17 C3'        -33.6700    19.1310   -43.8100 C.3          1 GNP300   0.0000
    18 O3'        -33.7220    19.3360   -42.3950 O.3          1 GNP300   0.0000
    19 C2'        -34.0540    20.4020   -44.5670 C.3          1 GNP300   0.0000
    20 O2'        -35.0900    21.1180   -43.8900 O.3          1 GNP300   0.0000
    21 C1'        -32.7360    21.1870   -44.5350 C.3          1 GNP300   0.0000
    22 N9         -32.5000    22.1000   -45.6880 N.pl3        1 GNP300   0.0000
    23 C8         -32.6500    21.8150   -46.9860 C.2          1 GNP300   0.0000
    24 N7         -32.3370    22.8850   -47.7120 N.2          1 GNP300   0.0000
    25 C5         -31.9840    23.8580   -46.8800 C.2          1 GNP300   0.0000
    26 C6         -31.5670    25.1750   -47.0790 C.2          1 GNP300   0.0000
    27 O6         -31.4690    25.6370   -48.2180 O.2          1 GNP300   0.0000
    28 N1         -31.2580    25.9610   -45.9440 N.pl3        1 GNP300   0.0000
    29 C2         -31.3790    25.4050   -44.6560 C.2          1 GNP300   0.0000
    30 N2         -31.0920    26.1380   -43.5840 N.pl3        1 GNP300   0.0000
    31 N3         -31.7850    24.1290   -44.5080 N.2          1 GNP300   0.0000
    32 C4         -32.0840    23.3600   -45.5800 C.2          1 GNP300   0.0000
    33 H3B        -32.0829    14.0176   -47.4767 H            1 GNP300   0.0000
    34 H5'1       -31.0570    17.9631   -45.7368 H            1 GNP300   0.0000
    35 H5'2       -32.1847    16.9693   -45.0986 H            1 GNP300   0.0000
    36 H4'        -31.6927    18.5589   -43.4369 H            1 GNP300   0.0000
    37 H3'        -34.2496    18.3629   -44.0823 H            1 GNP300   0.0000
    38 H6         -34.6694    19.4912   -42.1153 H            1 GNP300   0.0000
    39 H2'        -34.3213    20.1908   -45.5072 H            1 GNP300   0.0000
    40 H8         -35.3189    21.9422   -44.4080 H            1 GNP300   0.0000
    41 H1'        -32.6616    21.6946   -43.6766 H            1 GNP300   0.0000
    42 H10        -32.9506    20.9349   -47.3535 H            1 GNP300   0.0000
    43 H11        -31.1783    25.7420   -42.6698 H            1 GNP300   0.0000
    44 H12        -30.7899    27.0851   -43.6922 H            1 GNP300   0.0000
    45 H13        -30.9550    26.9074   -46.0560 H            1 GNP300   0.0000
@<TRIPOS>BOND
     1    1    2      ar
     2    1    3      ar
     3    1    4      ar
     4    1    5       1
     5    5    6       1
     6    6    7      ar
     7    6    8      ar
     8    6    9       1
     9    9   10       1
    10   10   11      ar
    11   10   12      ar
    12   10   13       1
    13   13   14       1
    14   14   15       1
    15   15   16       1
    16   15   17       1
    17   16   21       1
    18   17   18       1
    19   17   19       1
    20   19   20       1
    21   19   21       1
    22   21   22       1
    23   22   23       1
    24   22   32       1
    25   23   24       2
    26   24   25       1
    27   25   26       1
    28   25   32       2
    29   26   27       2
    30   26   28       1
    31   28   29       1
    32   29   30       1
    33   29   31       2
    34   31   32       1
    35   28   45       1
    36   30   44       1
    37    5   33       1
    38   30   43       1
    39   23   42       1
    40   14   34       1
    41   14   35       1
    42   15   36       1
    43   17   37       1
    44   18   38       1
    45   19   39       1
    46   20   40       1
    47   21   41       1
@<TRIPOS>SUBSTRUCTURE
     1 GNP300      1 GROUP             4 B     GNP     0 **** GNP B 300
