@<TRIPOS>MOLECULE
2qry_TPS_1_ligand
   38    39     1     0     0
SMALL
NO_CHARGES


@<TRIPOS>ATOM
     1 CM2          9.8580    44.3530   109.6850 C.3          1 TPS400   0.0000
     2 N3           7.6780    50.3510   111.2580 N.2          1 TPS400   1.0000
     3 C2           8.9510    50.3080   110.9180 C.2          1 TPS400   0.0000
     4 S1           9.4980    51.9300   111.1200 S.3          1 TPS400   0.0000
     5 C5           7.9700    52.6320   111.6710 C.2          1 TPS400   0.0000
     6 C4           7.1330    51.5370   111.6510 C.2          1 TPS400   0.0000
     7 CM4          5.6710    51.6690   112.0630 C.3          1 TPS400   0.0000
     8 C6           7.7930    54.0720   112.0390 C.3          1 TPS400   0.0000
     9 C7           9.1690    54.6330   111.6800 C.3          1 TPS400   0.0000
    10 O7           9.3320    56.0150   111.9740 O.3          1 TPS400   0.0000
    11 N1A          8.8200    45.8370   111.3500 N.ar         1 TPS400   0.0000
    12 C2A          9.0710    45.5870   110.0620 C.ar         1 TPS400   0.0000
    13 N3A          8.6410    46.4090   109.1070 N.ar         1 TPS400   0.0000
    14 C4A          7.9370    47.5230   109.4020 C.ar         1 TPS400   0.0000
    15 N4A          7.5070    48.3610   108.3890 N.pl3        1 TPS400   0.0000
    16 C5A          7.6490    47.8250   110.7710 C.ar         1 TPS400   0.0000
    17 C6A          8.1280    46.9210   111.7340 C.ar         1 TPS400   0.0000
    18 C7A          6.8550    49.0780   111.2130 C.3          1 TPS400   0.0000
    19 P1          10.8320    56.4040   111.5150 P.3          1 TPS400   0.0000
    20 O1          11.8480    55.4540   112.2090 O.co2        1 TPS400   0.0000
    21 O2          11.1520    57.9240   111.8200 O.co2        1 TPS400  -1.0000
    22 O3          10.9410    56.1890   109.9900 O.co2        1 TPS400  -1.0000
    23 HM21         9.9581    44.3123   108.6909 H            1 TPS400   0.0000
    24 HM22        10.7625    44.3918   110.1098 H            1 TPS400   0.0000
    25 HM23         9.3741    43.5384   110.0049 H            1 TPS400   0.0000
    26 H4           9.4787    49.5154   110.6126 H            1 TPS400   0.0000
    27 HM41         5.4796    52.6181   112.3132 H            1 TPS400   0.0000
    28 HM42         5.0839    51.4007   111.2992 H            1 TPS400   0.0000
    29 HM43         5.4906    51.0748   112.8468 H            1 TPS400   0.0000
    30 H8           7.5943    54.1808   113.0130 H            1 TPS400   0.0000
    31 H9           7.0685    54.5027   111.5008 H            1 TPS400   0.0000
    32 H10          9.3146    54.5020   110.6994 H            1 TPS400   0.0000
    33 H11          9.8592    54.1205   112.1908 H            1 TPS400   0.0000
    34 H4A1         6.9858    49.1855   108.6095 H            1 TPS400   0.0000
    35 H4A2         7.7173    48.1424   107.4361 H            1 TPS400   0.0000
    36 H6A          7.9535    47.0851   112.7049 H            1 TPS400   0.0000
    37 H7A1         6.1011    49.2144   110.5704 H            1 TPS400   0.0000
    38 H7A2         6.4872    48.9098   112.1275 H            1 TPS400   0.0000
@<TRIPOS>BOND
     1    1   12       1
     2    2    3       2
     3    2    6       1
     4    2   18       1
     5    3    4       1
     6    4    5       1
     7    5    6       2
     8    5    8       1
     9    6    7       1
    10    8    9       1
    11    9   10       1
    12   10   19       1
    13   11   12      ar
    14   11   17      ar
    15   12   13      ar
    16   13   14      ar
    17   14   15       1
    18   14   16      ar
    19   16   17      ar
    20   16   18       1
    21   19   20      ar
    22   19   21      ar
    23   19   22      ar
    24    1   23       1
    25    1   24       1
    26    1   25       1
    27    3   26       1
    28    7   27       1
    29    7   28       1
    30    7   29       1
    31    8   30       1
    32    8   31       1
    33    9   32       1
    34    9   33       1
    35   15   34       1
    36   15   35       1
    37   17   36       1
    38   18   37       1
    39   18   38       1
@<TRIPOS>SUBSTRUCTURE
     1 TPS400      1 GROUP             4 A     TPS     0 **** TPS A 400
