@<TRIPOS>MOLECULE
3mno_DEX_1_ligand
   57    60     1     0     0
SMALL
NO_CHARGES


@<TRIPOS>ATOM
     1 C1         -27.3590    27.0290     7.5080 C.2          1 DEX784   0.0000
     2 C2         -26.0890    26.6540     7.1520 C.2          1 DEX784   0.0000
     3 C3         -25.9020    25.8760     5.9010 C.2          1 DEX784   0.0000
     4 C4         -27.0800    25.4600     5.0840 C.2          1 DEX784   0.0000
     5 C5         -28.3350    25.8730     5.4820 C.2          1 DEX784   0.0000
     6 C6         -29.5150    25.4220     4.7030 C.3          1 DEX784   0.0000
     7 C7         -30.5540    24.7490     5.6200 C.3          1 DEX784   0.0000
     8 C8         -30.9450    25.6630     6.8090 C.3          1 DEX784   0.0000
     9 C9         -29.6180    26.0050     7.5550 C.3          1 DEX784   0.0000
    10 C10        -28.6070    26.7350     6.6440 C.3          1 DEX784   0.0000
    11 C11        -29.8420    26.6660     8.9040 C.3          1 DEX784   0.0000
    12 C12        -30.9600    25.9620     9.7650 C.3          1 DEX784   0.0000
    13 C13        -32.2820    25.7370     8.9450 C.3          1 DEX784   0.0000
    14 C14        -31.9590    24.9000     7.6890 C.3          1 DEX784   0.0000
    15 C15        -33.3090    24.4110     7.1230 C.3          1 DEX784   0.0000
    16 C16        -34.2020    24.3140     8.3880 C.3          1 DEX784   0.0000
    17 C17        -33.3020    24.7430     9.5830 C.3          1 DEX784   0.0000
    18 C18        -33.0440    27.0740     8.5840 C.3          1 DEX784   0.0000
    19 C19        -29.0680    28.0980     6.0460 C.3          1 DEX784   0.0000
    20 C20        -34.1590    25.3730    10.6620 C.2          1 DEX784   0.0000
    21 C21        -33.5880    25.5800    12.0640 C.3          1 DEX784   0.0000
    22 C22        -34.6330    22.8420     8.5100 C.3          1 DEX784   0.0000
    23 F1         -29.0550    24.7970     7.9310 F            1 DEX784   0.0000
    24 O1         -24.8230    25.5090     5.5420 O.2          1 DEX784   0.0000
    25 O2         -30.2280    28.0510     8.7420 O.3          1 DEX784   0.0000
    26 O3         -32.6030    23.7050    10.2560 O.3          1 DEX784   0.0000
    27 O4         -35.2460    25.8960    10.4330 O.2          1 DEX784   0.0000
    28 O5         -34.1930    26.5920    12.8470 O.3          1 DEX784   0.0000
    29 H1         -27.4845    27.5180     8.3712 H            1 DEX784   0.0000
    30 H2         -25.3053    26.8992     7.7227 H            1 DEX784   0.0000
    31 H3         -26.9624    24.8951     4.2672 H            1 DEX784   0.0000
    32 H4         -29.2179    24.7667     4.0085 H            1 DEX784   0.0000
    33 H5         -29.9349    26.2126     4.2574 H            1 DEX784   0.0000
    34 H6         -30.1681    23.8987     5.9779 H            1 DEX784   0.0000
    35 H7         -31.3738    24.5440     5.0854 H            1 DEX784   0.0000
    36 H8         -31.3636    26.5032     6.4643 H            1 DEX784   0.0000
    37 H9         -28.9837    26.6358     9.4163 H            1 DEX784   0.0000
    38 H10        -31.1658    26.5356    10.5578 H            1 DEX784   0.0000
    39 H11        -30.6178    25.0750    10.0751 H            1 DEX784   0.0000
    40 H12        -31.4832    24.0832     8.0152 H            1 DEX784   0.0000
    41 H13        -33.2120    23.5187     6.6821 H            1 DEX784   0.0000
    42 H14        -33.6833    25.0675     6.4681 H            1 DEX784   0.0000
    43 H15        -34.9986    24.9132     8.3087 H            1 DEX784   0.0000
    44 H16        -33.8709    26.8568     8.0653 H            1 DEX784   0.0000
    45 H17        -33.2945    27.5525     9.4256 H            1 DEX784   0.0000
    46 H18        -32.4487    27.6586     8.0328 H            1 DEX784   0.0000
    47 H19        -29.8775    27.9554     5.4765 H            1 DEX784   0.0000
    48 H20        -29.2900    28.7298     6.7887 H            1 DEX784   0.0000
    49 H21        -28.3323    28.4836     5.4891 H            1 DEX784   0.0000
    50 H22        -32.6193    25.8085    11.9672 H            1 DEX784   0.0000
    51 H23        -33.6788    24.7165    12.5600 H            1 DEX784   0.0000
    52 H24        -35.2139    22.7305     9.3163 H            1 DEX784   0.0000
    53 H25        -35.1430    22.5751     7.6923 H            1 DEX784   0.0000
    54 H26        -33.8222    22.2637     8.6007 H            1 DEX784   0.0000
    55 H27        -30.8162    28.3243     9.5031 H            1 DEX784   0.0000
    56 H28        -33.2599    23.0704    10.6633 H            1 DEX784   0.0000
    57 H29        -35.1553    26.6815    12.5903 H            1 DEX784   0.0000
@<TRIPOS>BOND
     1    1    2       2
     2    1   10       1
     3    2    3       1
     4    3    4       1
     5    3   24       2
     6    4    5       2
     7    5    6       1
     8    5   10       1
     9    6    7       1
    10    7    8       1
    11    8    9       1
    12    8   14       1
    13    9   10       1
    14    9   11       1
    15    9   23       1
    16   10   19       1
    17   11   12       1
    18   11   25       1
    19   12   13       1
    20   13   14       1
    21   13   17       1
    22   13   18       1
    23   14   15       1
    24   15   16       1
    25   16   17       1
    26   16   22       1
    27   17   20       1
    28   17   26       1
    29   20   21       1
    30   20   27       2
    31   21   28       1
    32    1   29       1
    33    2   30       1
    34    4   31       1
    35    6   32       1
    36    6   33       1
    37    7   34       1
    38    7   35       1
    39    8   36       1
    40   11   37       1
    41   12   38       1
    42   12   39       1
    43   14   40       1
    44   15   41       1
    45   15   42       1
    46   16   43       1
    47   18   44       1
    48   18   45       1
    49   18   46       1
    50   19   47       1
    51   19   48       1
    52   19   49       1
    53   21   50       1
    54   21   51       1
    55   22   52       1
    56   22   53       1
    57   22   54       1
    58   25   55       1
    59   26   56       1
    60   28   57       1
@<TRIPOS>SUBSTRUCTURE
     1 DEX784      1 GROUP             4 A     DEX     0 **** DEX A 784
