@<TRIPOS>MOLECULE
3zj7_C1K_2_ligand
   41    42     1     0     0
SMALL
NO_CHARGES


@<TRIPOS>ATOM
     1 CAI        -49.4990   -31.0390    29.9080 C.3          1 C1K1509   0.0000
     2 CAF        -48.4570   -31.9810    29.2040 C.3          1 C1K1509   0.0000
     3 CAE        -48.3820   -31.7190    27.6930 C.3          1 C1K1509   0.0000
     4 CAG        -49.7770   -32.0030    27.1100 C.3          1 C1K1509   0.0000
     5 CAJ        -50.8040   -32.3140    28.3190 C.3          1 C1K1509   0.0000
     6 CAL        -50.8670   -31.0940    29.2500 C.3          1 C1K1509   0.0000
     7 NAK        -51.1720   -29.8420    28.4910 N.4          1 C1K1509   1.0000
     8 CAQ        -52.4120   -29.0640    28.7100 C.3          1 C1K1509   0.0000
     9 CAO        -52.2900   -27.5980    28.1100 C.3          1 C1K1509   0.0000
    10 OAD        -52.1860   -26.5560    29.1540 O.3          1 C1K1509   0.0000
    11 CAM        -53.6260   -27.4450    27.3570 C.3          1 C1K1509   0.0000
    12 OAB        -53.5480   -26.4830    26.3350 O.3          1 C1K1509   0.0000
    13 CAN        -53.8470   -28.7810    26.7600 C.3          1 C1K1509   0.0000
    14 OAC        -55.1850   -28.8920    26.3150 O.3          1 C1K1509   0.0000
    15 CAP        -53.7020   -29.6180    27.9940 C.3          1 C1K1509   0.0000
    16 CAH        -53.6330   -31.0730    27.5290 C.3          1 C1K1509   0.0000
    17 OAA        -54.9080   -31.6230    27.8870 O.3          1 C1K1509   0.0000
    18 HAI1       -49.1607   -30.0988    29.8673 H            1 C1K1509   0.0000
    19 HAI2       -49.5908   -31.3192    30.8636 H            1 C1K1509   0.0000
    20 HAF1       -48.7268   -32.9321    29.3547 H            1 C1K1509   0.0000
    21 HAF2       -47.5548   -31.8229    29.6052 H            1 C1K1509   0.0000
    22 HAE1       -47.7060   -32.3250    27.2737 H            1 C1K1509   0.0000
    23 HAE2       -48.1273   -30.7671    27.5229 H            1 C1K1509   0.0000
    24 HAG1       -49.7299   -32.7935    26.4993 H            1 C1K1509   0.0000
    25 HAG2       -50.0946   -31.2048    26.5981 H            1 C1K1509   0.0000
    26 HAJ1       -50.4857   -33.1110    28.8323 H            1 C1K1509   0.0000
    27 HAJ2       -51.7136   -32.4987    27.9468 H            1 C1K1509   0.0000
    28 HAL        -51.5681   -31.2414    29.9477 H            1 C1K1509   0.0000
    29 HAK1       -51.1700   -30.0957    27.5237 H            1 C1K1509   0.0000
    30 HAQ        -52.5870   -29.0001    29.6925 H            1 C1K1509   0.0000
    31 HAO        -51.5191   -27.5397    27.4757 H            1 C1K1509   0.0000
    32 HAD        -53.0011   -26.5814    29.7327 H            1 C1K1509   0.0000
    33 HAM        -54.3632   -27.2199    27.9941 H            1 C1K1509   0.0000
    34 HAB        -54.4447   -26.0592    26.2070 H            1 C1K1509   0.0000
    35 HAN        -53.1787   -29.0087    26.0518 H            1 C1K1509   0.0000
    36 HAC        -55.2251   -29.5109    25.5306 H            1 C1K1509   0.0000
    37 HAP        -54.4983   -29.4894    28.5851 H            1 C1K1509   0.0000
    38 HAH1       -52.8943   -31.5590    27.9960 H            1 C1K1509   0.0000
    39 HAH2       -53.4915   -31.1221    26.5403 H            1 C1K1509   0.0000
    40 HAA        -54.7761   -32.3860    28.5198 H            1 C1K1509   0.0000
    41 HAK2       -50.4145   -29.2150    28.6728 H            1 C1K1509   0.0000
@<TRIPOS>BOND
     1    1    2       1
     2    1    6       1
     3    2    3       1
     4    3    4       1
     5    4    5       1
     6    5    6       1
     7    6    7       1
     8    7    8       1
     9    8    9       1
    10    8   15       1
    11    9   10       1
    12    9   11       1
    13   11   12       1
    14   11   13       1
    15   13   14       1
    16   13   15       1
    17   15   16       1
    18   16   17       1
    19    1   18       1
    20    1   19       1
    21    2   20       1
    22    2   21       1
    23    3   22       1
    24    3   23       1
    25    4   24       1
    26    4   25       1
    27    5   26       1
    28    5   27       1
    29    6   28       1
    30    7   29       1
    31    8   30       1
    32    9   31       1
    33   10   32       1
    34   11   33       1
    35   12   34       1
    36   13   35       1
    37   14   36       1
    38   15   37       1
    39   16   38       1
    40   16   39       1
    41   17   40       1
    42    7   41       1
@<TRIPOS>SUBSTRUCTURE
     1 C1K1509     1 GROUP             4 B     C1K     0 **** C1K B1509
