@<TRIPOS>MOLECULE
3c2q_IMD_1_ligand
   10    10     1     0     0
SMALL
NO_CHARGES


@<TRIPOS>ATOM
     1 N1          32.4280    17.2580     4.3010 N.2          1 IMD501   1.0000
     2 C2          33.3470    18.2290     4.7030 C.2          1 IMD501   0.0000
     3 N3          32.7860    19.1910     5.5220 N.pl3        1 IMD501   0.0000
     4 C4          31.4880    18.7820     5.6640 C.2          1 IMD501   0.0000
     5 C5          31.2630    17.5920     4.9120 C.2          1 IMD501   0.0000
     6 H1          32.5929    16.4818     3.6925 H            1 IMD501   0.0000
     7 H2          34.3084    18.2287     4.4279 H            1 IMD501   0.0000
     8 H3          30.7973    19.2500     6.2153 H            1 IMD501   0.0000
     9 H4          30.3996    17.0918     4.8463 H            1 IMD501   0.0000
    10 H5          33.2258    19.9971     5.9180 H            1 IMD501   0.0000
@<TRIPOS>BOND
     1    1    2       2
     2    1    5       1
     3    2    3       1
     4    3    4       1
     5    4    5       2
     6    1    6       1
     7    2    7       1
     8    4    8       1
     9    5    9       1
    10    3   10       1
@<TRIPOS>SUBSTRUCTURE
     1 IMD501      1 GROUP             4 A     IMD     0 **** IMD A 501
