@<TRIPOS>MOLECULE
3dgz_FAD_2_ligand
   84    89     1     0     0
SMALL
NO_CHARGES


@<TRIPOS>ATOM
     1 PA          90.5110   103.3640   -51.8760 P.3          1 FAD500   0.0000
     2 O1A         89.5170   102.7360   -50.9670 O.co2        1 FAD500   0.0000
     3 O2A         91.8680   102.7680   -51.7000 O.co2        1 FAD500  -1.0000
     4 O5B         89.9280   103.1880   -53.3590 O.3          1 FAD500   0.0000
     5 C5B         90.6710   103.3630   -54.4980 C.3          1 FAD500   0.0000
     6 C4B         89.9690   102.5060   -55.5340 C.3          1 FAD500   0.0000
     7 O4B         90.4310   102.9110   -56.8190 O.3          1 FAD500   0.0000
     8 C3B         90.4060   101.0690   -55.4180 C.3          1 FAD500   0.0000
     9 O3B         89.2250   100.3820   -55.7680 O.3          1 FAD500   0.0000
    10 C2B         91.4970   100.9360   -56.5020 C.3          1 FAD500   0.0000
    11 O2B         91.6560    99.5990   -56.9200 O.3          1 FAD500   0.0000
    12 C1B         90.9090   101.8270   -57.5840 C.3          1 FAD500   0.0000
    13 N9A         91.8040   102.3420   -58.6570 N.pl3        1 FAD500   0.0000
    14 C8A         93.1430   102.6990   -58.5450 C.2          1 FAD500   0.0000
    15 N7A         93.5700   103.0980   -59.7260 N.2          1 FAD500   0.0000
    16 C5A         92.5570   103.0190   -60.6280 C.ar         1 FAD500   0.0000
    17 C6A         92.4610   103.3340   -61.9940 C.ar         1 FAD500   0.0000
    18 N6A         93.5470   103.5870   -62.7610 N.pl3        1 FAD500   0.0000
    19 N1A         91.2550   103.1000   -62.6130 N.ar         1 FAD500   0.0000
    20 C2A         90.1370   102.6480   -61.9510 C.ar         1 FAD500   0.0000
    21 N3A         90.2350   102.3480   -60.6110 N.ar         1 FAD500   0.0000
    22 C4A         91.4330   102.5240   -59.9570 C.ar         1 FAD500   0.0000
    23 N1          91.0300   103.3950   -42.3410 N.2          1 FAD500   0.0000
    24 C2          90.1980   103.6910   -41.2540 C.2          1 FAD500   0.0000
    25 O2          89.6360   104.7760   -41.2410 O.2          1 FAD500   0.0000
    26 N3          90.0250   102.7810   -40.1960 N.pl3        1 FAD500   0.0000
    27 C4          90.7020   101.5680   -40.2210 C.2          1 FAD500   0.0000
    28 O4          90.4460   100.7140   -39.3730 O.2          1 FAD500   0.0000
    29 C4X         91.5370   101.2600   -41.3360 C.2          1 FAD500   0.0000
    30 N5          92.2160   100.0530   -41.4400 N.2          1 FAD500   0.0000
    31 C5X         92.9470    99.7490   -42.5810 C.ar         1 FAD500   0.0000
    32 C6          93.6190    98.5250   -42.6380 C.ar         1 FAD500   0.0000
    33 C7          94.3870    98.2170   -43.7660 C.ar         1 FAD500   0.0000
    34 C7M         94.9130    96.8030   -43.8930 C.3          1 FAD500   0.0000
    35 C8          94.5120    99.1320   -44.8410 C.ar         1 FAD500   0.0000
    36 C8M         95.4360    98.7890   -45.9470 C.3          1 FAD500   0.0000
    37 C9          93.8740   100.3770   -44.8010 C.ar         1 FAD500   0.0000
    38 C9A         93.0780   100.6610   -43.6270 C.ar         1 FAD500   0.0000
    39 N10         92.4250   101.8820   -43.5100 N.pl3        1 FAD500   0.0000
    40 C10         91.6710   102.1760   -42.4040 C.2          1 FAD500   0.0000
    41 C1'         92.7730   102.9630   -44.5300 C.3          1 FAD500   0.0000
    42 C2'         91.5260   103.1490   -45.3940 C.3          1 FAD500   0.0000
    43 O2'         91.1730   101.9210   -45.9860 O.3          1 FAD500   0.0000
    44 C3'         91.8360   104.1750   -46.4610 C.3          1 FAD500   0.0000
    45 O3'         92.3270   105.3280   -45.7780 O.3          1 FAD500   0.0000
    46 C4'         90.6950   104.3950   -47.4560 C.3          1 FAD500   0.0000
    47 O4'         90.1740   103.2020   -48.0220 O.3          1 FAD500   0.0000
    48 C5'         91.1650   105.2420   -48.6390 C.3          1 FAD500   0.0000
    49 O5'         90.0800   105.4040   -49.5200 O.3          1 FAD500   0.0000
    50 P           90.2310   106.1290   -50.9150 P.3          1 FAD500   0.0000
    51 O1P         89.0330   106.9000   -51.3090 O.co2        1 FAD500   0.0000
    52 O2P         91.3620   107.0890   -50.8290 O.co2        1 FAD500  -1.0000
    53 O3P         90.7060   104.9730   -51.8830 O.3          1 FAD500   0.0000
    54 H5B1        91.6115   103.0529   -54.3593 H            1 FAD500   0.0000
    55 H5B2        90.6743   104.3237   -54.7754 H            1 FAD500   0.0000
    56 H4B         88.9752   102.5904   -55.4621 H            1 FAD500   0.0000
    57 H3B         90.7357   100.8352   -54.5033 H            1 FAD500   0.0000
    58 H5          88.9532   100.6376   -56.6958 H            1 FAD500   0.0000
    59 H2B         92.3656   101.3075   -56.1741 H            1 FAD500   0.0000
    60 H7          91.4683    99.5315   -57.8999 H            1 FAD500   0.0000
    61 H1B         90.1324   101.3583   -58.0051 H            1 FAD500   0.0000
    62 H8A         93.6900   102.6596   -57.7088 H            1 FAD500   0.0000
    63 H6A1        93.4345   103.8075   -63.7299 H            1 FAD500   0.0000
    64 H6A2        94.4620   103.5535   -62.3588 H            1 FAD500   0.0000
    65 H2A         89.2685   102.5393   -62.4346 H            1 FAD500   0.0000
    66 H13         89.4198   103.0050   -39.4321 H            1 FAD500   0.0000
    67 H14         93.5516    97.8760   -41.8802 H            1 FAD500   0.0000
    68 H7M1        95.4415    96.7186   -44.7377 H            1 FAD500   0.0000
    69 H7M2        95.4995    96.5940   -43.1105 H            1 FAD500   0.0000
    70 H7M3        94.1454    96.1625   -43.9147 H            1 FAD500   0.0000
    71 H8M1        95.4235    99.5190   -46.6303 H            1 FAD500   0.0000
    72 H8M2        96.3631    98.6854   -45.5868 H            1 FAD500   0.0000
    73 H8M3        95.1451    97.9311   -46.3705 H            1 FAD500   0.0000
    74 H21         93.9639   101.0372   -45.5467 H            1 FAD500   0.0000
    75 H1'1        93.5456   102.6718   -45.0941 H            1 FAD500   0.0000
    76 H1'2        93.0033   103.8177   -44.0648 H            1 FAD500   0.0000
    77 H2'         90.7709   103.4755   -44.8255 H            1 FAD500   0.0000
    78 H25         90.7275   102.0906   -46.8651 H            1 FAD500   0.0000
    79 H3'         92.6038   103.8109   -46.9881 H            1 FAD500   0.0000
    80 H27         92.9733   105.8140   -46.3664 H            1 FAD500   0.0000
    81 H4'         89.9536   104.8787   -46.9908 H            1 FAD500   0.0000
    82 H29         90.2853   103.2281   -49.0154 H            1 FAD500   0.0000
    83 H5'1        91.9170   104.7799   -49.1090 H            1 FAD500   0.0000
    84 H5'2        91.4741   106.1358   -48.3142 H            1 FAD500   0.0000
@<TRIPOS>BOND
     1    1    2      ar
     2    1    3      ar
     3    1    4       1
     4    1   53       1
     5    4    5       1
     6    5    6       1
     7    6    7       1
     8    6    8       1
     9    7   12       1
    10    8    9       1
    11    8   10       1
    12   10   11       1
    13   10   12       1
    14   12   13       1
    15   13   14       1
    16   13   22       1
    17   14   15       2
    18   15   16       1
    19   16   17      ar
    20   16   22      ar
    21   17   18       1
    22   17   19      ar
    23   19   20      ar
    24   20   21      ar
    25   21   22      ar
    26   23   24       1
    27   23   40       2
    28   24   25       2
    29   24   26       1
    30   26   27       1
    31   27   28       2
    32   27   29       1
    33   29   30       2
    34   29   40       1
    35   30   31       1
    36   31   32      ar
    37   31   38      ar
    38   32   33      ar
    39   33   34       1
    40   33   35      ar
    41   35   36       1
    42   35   37      ar
    43   37   38      ar
    44   38   39       1
    45   39   40       1
    46   39   41       1
    47   41   42       1
    48   42   43       1
    49   42   44       1
    50   44   45       1
    51   44   46       1
    52   46   47       1
    53   46   48       1
    54   48   49       1
    55   49   50       1
    56   50   51      ar
    57   50   52      ar
    58   50   53       1
    59   48   84       1
    60    5   54       1
    61    5   55       1
    62    6   56       1
    63    8   57       1
    64    9   58       1
    65   10   59       1
    66   11   60       1
    67   12   61       1
    68   14   62       1
    69   18   63       1
    70   18   64       1
    71   20   65       1
    72   26   66       1
    73   32   67       1
    74   34   68       1
    75   34   69       1
    76   34   70       1
    77   36   71       1
    78   36   72       1
    79   36   73       1
    80   37   74       1
    81   41   75       1
    82   41   76       1
    83   42   77       1
    84   43   78       1
    85   44   79       1
    86   45   80       1
    87   46   81       1
    88   47   82       1
    89   48   83       1
@<TRIPOS>SUBSTRUCTURE
     1 FAD500      1 GROUP             4 A     FAD     0 **** FAD A 500
