@<TRIPOS>MOLECULE
4diq_PD2_1_ligand
   15    15     1     0     0
SMALL
NO_CHARGES


@<TRIPOS>ATOM
     1 O42        -22.9850   -51.7050    -5.5110 O.co2        1 PD2701   0.0000
     2 C41        -22.6550   -51.6300    -6.7160 C.2          1 PD2701   0.0000
     3 O41        -21.4420   -51.7360    -7.0460 O.co2        1 PD2701  -1.0000
     4 C4         -23.7440   -51.4580    -7.7530 C.ar         1 PD2701   0.0000
     5 C5         -23.3940   -51.3980    -9.0970 C.ar         1 PD2701   0.0000
     6 C6         -24.3710   -51.2240   -10.0680 C.ar         1 PD2701   0.0000
     7 C3         -25.1040   -51.3850    -7.4060 C.ar         1 PD2701   0.0000
     8 C2         -26.0590   -51.2460    -8.4170 C.ar         1 PD2701   0.0000
     9 N1         -25.6510   -51.1740    -9.7160 N.ar         1 PD2701   0.0000
    10 C21        -27.5500   -51.1140    -8.1730 C.2          1 PD2701   0.0000
    11 O21        -28.1560   -51.2990    -7.0680 O.co2        1 PD2701   0.0000
    12 O22        -28.1510   -50.7590    -9.1990 O.co2        1 PD2701  -1.0000
    13 H1         -22.4343   -51.4805    -9.3656 H            1 PD2701   0.0000
    14 H2         -24.1118   -51.1365   -11.0299 H            1 PD2701   0.0000
    15 H3         -25.3849   -51.4319    -6.4474 H            1 PD2701   0.0000
@<TRIPOS>BOND
     1    1    2      ar
     2    2    3      ar
     3    2    4       1
     4    4    5      ar
     5    4    7      ar
     6    5    6      ar
     7    6    9      ar
     8    7    8      ar
     9    8    9      ar
    10    8   10       1
    11   10   11      ar
    12   10   12      ar
    13    7   15       1
    14    5   13       1
    15    6   14       1
@<TRIPOS>SUBSTRUCTURE
     1 PD2701      1 GROUP             4 A     PD2     0 **** PD2 A 701
