@<TRIPOS>MOLECULE
4guk_P2G_2_ligand
   17    16     1     0     0
SMALL
NO_CHARGES


@<TRIPOS>ATOM
     1 C1'        -11.5480   -13.0790     4.9000 C.3          1 P2G208   0.0000
     2 O4'        -10.4740   -12.2490     4.7130 O.3          1 P2G208   0.0000
     3 C2'        -11.9700   -13.2340     6.3270 C.3          1 P2G208   0.0000
     4 O2'        -12.4450   -14.4650     6.7600 O.3          1 P2G208   0.0000
     5 C4'        -10.5100   -11.1540     3.8670 C.3          1 P2G208   0.0000
     6 C5'         -9.1940   -10.4630     3.6850 C.3          1 P2G208   0.0000
     7 O5'         -9.1840    -9.0870     3.8100 O.3          1 P2G208   0.0000
     8 H1'1       -11.3100   -13.9829     4.5445 H            1 P2G208   0.0000
     9 H1'2       -12.3212   -12.7107     4.3837 H            1 P2G208   0.0000
    10 H2'1       -12.6954   -12.5658     6.4920 H            1 P2G208   0.0000
    11 H2'2       -11.1763   -13.0109     6.8929 H            1 P2G208   0.0000
    12 H2'        -13.3811   -14.3616     7.0962 H            1 P2G208   0.0000
    13 H4'1       -11.1605   -10.4926     4.2404 H            1 P2G208   0.0000
    14 H4'2       -10.8266   -11.4630     2.9702 H            1 P2G208   0.0000
    15 H5'1        -8.8613   -10.6848     2.7684 H            1 P2G208   0.0000
    16 H5'2        -8.5628   -10.8322     4.3671 H            1 P2G208   0.0000
    17 H5'        -10.1085    -8.7640     4.0124 H            1 P2G208   0.0000
@<TRIPOS>BOND
     1    1    2       1
     2    1    3       1
     3    2    5       1
     4    3    4       1
     5    5    6       1
     6    6    7       1
     7    1    8       1
     8    1    9       1
     9    3   10       1
    10    3   11       1
    11    4   12       1
    12    5   13       1
    13    5   14       1
    14    6   15       1
    15    6   16       1
    16    7   17       1
@<TRIPOS>SUBSTRUCTURE
     1 P2G208      1 GROUP             4 B     P2G     0 **** P2G B 208
