@<TRIPOS>MOLECULE
4jlc_SU6_1_ligand
   41    43     1     0     0
SMALL
NO_CHARGES


@<TRIPOS>ATOM
     1 C1          25.8500    18.3760     6.4670 C.2          1 SU6701   0.0000
     2 N1          24.9200    18.5930    12.4460 N.pl3        1 SU6701   0.0000
     3 O1          24.6570    18.3170     6.0570 O.co2        1 SU6701   0.0000
     4 C2          26.1260    18.3590     7.9370 C.3          1 SU6701   0.0000
     5 N2          26.2160    18.8200    16.7630 N.pl3        1 SU6701   0.0000
     6 O2          26.8020    18.4470     5.6400 O.co2        1 SU6701  -1.0000
     7 C3          25.0010    17.9470     8.8320 C.3          1 SU6701   0.0000
     8 O3          24.7880    19.3640    14.9470 O.3          1 SU6701  -1.0000
     9 C4          25.1490    17.9920    10.3210 C.2          1 SU6701   0.0000
    10 C5          24.5370    18.8800    11.1960 C.2          1 SU6701   0.0000
    11 C6          23.6030    19.9700    10.7960 C.3          1 SU6701   0.0000
    12 C7          25.9290    17.1550    11.1220 C.2          1 SU6701   0.0000
    13 C8          26.7820    16.0320    10.6460 C.3          1 SU6701   0.0000
    14 C9          25.7690    17.5620    12.4430 C.2          1 SU6701   0.0000
    15 C10         26.4430    16.8860    13.6030 C.3          1 SU6701   0.0000
    16 C11         26.5090    17.5530    14.9510 C.2          1 SU6701   0.0000
    17 C12         25.7840    18.6120    15.5170 C.2          1 SU6701   0.0000
    18 C13         27.4030    17.1330    15.9660 C.ar         1 SU6701   0.0000
    19 C14         27.1970    17.9370    17.0660 C.ar         1 SU6701   0.0000
    20 C15         27.9600    17.7450    18.2290 C.ar         1 SU6701   0.0000
    21 C16         28.9200    16.7480    18.2780 C.ar         1 SU6701   0.0000
    22 C17         29.1300    15.9360    17.1690 C.ar         1 SU6701   0.0000
    23 C18         28.3770    16.1250    16.0150 C.ar         1 SU6701   0.0000
    24 H1          24.6145    19.0802    13.2641 H            1 SU6701   0.0000
    25 H2          26.4012    19.2827     8.2034 H            1 SU6701   0.0000
    26 H3          26.8845    17.7267     8.0946 H            1 SU6701   0.0000
    27 H4          25.8667    19.5240    17.3813 H            1 SU6701   0.0000
    28 H5          24.7810    17.0005     8.5959 H            1 SU6701   0.0000
    29 H6          24.2256    18.5361     8.6047 H            1 SU6701   0.0000
    30 H7          23.4892    19.9636     9.8025 H            1 SU6701   0.0000
    31 H8          22.7157    19.8261    11.2341 H            1 SU6701   0.0000
    32 H9          23.9773    20.8518    11.0830 H            1 SU6701   0.0000
    33 H10         27.2309    15.5997    11.4281 H            1 SU6701   0.0000
    34 H11         26.2134    15.3584    10.1738 H            1 SU6701   0.0000
    35 H12         27.4749    16.3834    10.0164 H            1 SU6701   0.0000
    36 H13         27.3875    16.7139    13.3233 H            1 SU6701   0.0000
    37 H14         25.9715    16.0146    13.7386 H            1 SU6701   0.0000
    38 H15         27.8095    18.3307    19.0254 H            1 SU6701   0.0000
    39 H16         29.4605    16.6125    19.1084 H            1 SU6701   0.0000
    40 H17         29.8229    15.2157    17.2011 H            1 SU6701   0.0000
    41 H18         28.5305    15.5407    15.2181 H            1 SU6701   0.0000
@<TRIPOS>BOND
     1    1    3      ar
     2    1    4       1
     3    1    6      ar
     4    2   10       1
     5    2   14       1
     6    4    7       1
     7    5   17       1
     8    5   19       1
     9    7    9       1
    10    8   17       1
    11    9   10       2
    12    9   12       1
    13   10   11       1
    14   12   13       1
    15   12   14       2
    16   14   15       1
    17   15   16       1
    18   16   17       2
    19   16   18       1
    20   18   19      ar
    21   18   23      ar
    22   19   20      ar
    23   20   21      ar
    24   21   22      ar
    25   22   23      ar
    26    2   24       1
    27   23   41       1
    28    4   25       1
    29    4   26       1
    30    5   27       1
    31    7   28       1
    32    7   29       1
    33   22   40       1
    34   11   30       1
    35   11   31       1
    36   11   32       1
    37   13   33       1
    38   13   34       1
    39   13   35       1
    40   15   36       1
    41   15   37       1
    42   20   38       1
    43   21   39       1
@<TRIPOS>SUBSTRUCTURE
     1 SU6701      1 GROUP             4 A     SU6     0 **** SU6 A 701
