@<TRIPOS>MOLECULE
2wu1_FGS_1_ligand
   35    34     1     0     0
SMALL
NO_CHARGES


@<TRIPOS>ATOM
     1 O18         22.9870    -9.3210    31.1730 O.co2        1 FGS1268   0.0000
     2 P15         23.3590    -9.4650    29.5770 P.3          1 FGS1268   0.0000
     3 O16         24.9530    -9.0510    29.3030 O.co2        1 FGS1268  -1.0000
     4 O17         23.1900   -10.8450    29.1350 O.co2        1 FGS1268  -1.0000
     5 O12         22.3380    -8.4830    28.7240 O.3          1 FGS1268   0.0000
     6 C10         21.6420    -7.5010    29.4360 C.3          1 FGS1268   0.0000
     7 C7          21.5110    -6.1340    28.7020 C.3          1 FGS1268   0.0000
     8 O4          21.1720    -6.3190    27.3420 O.3          1 FGS1268   0.0000
     9 C1          22.7660    -5.2670    28.8970 C.3          1 FGS1268   0.0000
    10 O6          23.1770    -4.6180    27.7160 O.3          1 FGS1268   0.0000
    11 C2          22.7340    -4.3430    30.1500 C.3          1 FGS1268   0.0000
    12 O8          23.8060    -3.4250    30.1580 O.3          1 FGS1268   0.0000
    13 C3          22.5950    -5.0860    31.5090 C.3          1 FGS1268   0.0000
    14 C19         21.5090    -4.5590    32.4910 C.3          1 FGS1268   0.0000
    15 O20         21.2370    -3.1750    32.5450 O.3          1 FGS1268   0.0000
    16 N19         23.9210    -5.2710    32.1100 N.am         1 FGS1268   0.0000
    17 C21         24.4910    -6.6120    32.2890 C.2          1 FGS1268   0.0000
    18 O22         23.7970    -7.5070    32.6550 O.2          1 FGS1268   0.0000
    19 C23         26.0310    -6.7240    32.4090 C.3          1 FGS1268   0.0000
    20 H1          22.1200    -7.3457    30.3005 H            1 FGS1268   0.0000
    21 H2          20.7213    -7.8445    29.6212 H            1 FGS1268   0.0000
    22 H3          20.7498    -5.6456    29.1286 H            1 FGS1268   0.0000
    23 H4          22.0074    -6.3950    26.7976 H            1 FGS1268   0.0000
    24 H5          23.4959    -5.9231    29.0887 H            1 FGS1268   0.0000
    25 H6          23.9934    -4.0716    27.9028 H            1 FGS1268   0.0000
    26 H7          21.9055    -3.7906    30.0577 H            1 FGS1268   0.0000
    27 H8          24.6724    -3.9243    30.1605 H            1 FGS1268   0.0000
    28 H9          22.2938    -6.0081    31.2662 H            1 FGS1268   0.0000
    29 H10         21.7877    -4.8372    33.4102 H            1 FGS1268   0.0000
    30 H11         20.6523    -5.0151    32.2500 H            1 FGS1268   0.0000
    31 H12         20.5199    -3.0023    33.2203 H            1 FGS1268   0.0000
    32 H13         24.4447    -4.4708    32.4023 H            1 FGS1268   0.0000
    33 H14         26.2873    -7.6834    32.5264 H            1 FGS1268   0.0000
    34 H15         26.4571    -6.3643    31.5789 H            1 FGS1268   0.0000
    35 H16         26.3430    -6.1965    33.1992 H            1 FGS1268   0.0000
@<TRIPOS>BOND
     1    1    2      ar
     2    2    3      ar
     3    2    4      ar
     4    2    5       1
     5    5    6       1
     6    6    7       1
     7    7    8       1
     8    7    9       1
     9    9   10       1
    10    9   11       1
    11   11   12       1
    12   11   13       1
    13   13   14       1
    14   13   16       1
    15   14   15       1
    16   16   17      am
    17   17   18       2
    18   17   19       1
    19   19   35       1
    20   19   34       1
    21    6   20       1
    22    6   21       1
    23    7   22       1
    24    8   23       1
    25    9   24       1
    26   10   25       1
    27   11   26       1
    28   12   27       1
    29   13   28       1
    30   14   29       1
    31   14   30       1
    32   15   31       1
    33   16   32       1
    34   19   33       1
@<TRIPOS>SUBSTRUCTURE
     1 FGS1268     1 GROUP             4 A     FGS     0 **** FGS A1268
