@<TRIPOS>MOLECULE
5b0o_ADP_3_ligand
   39    41     1     0     0
SMALL
NO_CHARGES


@<TRIPOS>ATOM
     1 PB         -59.6610   -11.6540    14.3700 P.3          1 ADP601   0.0000
     2 O1B        -59.0270   -12.9620    13.9500 O.co2        1 ADP601   0.0000
     3 O2B        -60.8400   -11.7970    15.3070 O.co2        1 ADP601  -1.0000
     4 O3B        -58.6860   -10.5770    14.7860 O.co2        1 ADP601  -1.0000
     5 PA         -61.8120   -11.4090    12.5710 P.3          1 ADP601   0.0000
     6 O1A        -62.0230   -12.9060    12.5740 O.co2        1 ADP601   0.0000
     7 O2A        -62.7090   -10.5220    13.4070 O.co2        1 ADP601  -1.0000
     8 O3A        -60.2870   -11.1000    12.9920 O.3          1 ADP601   0.0000
     9 O5'        -61.8410   -10.8740    11.0510 O.3          1 ADP601   0.0000
    10 C5'        -63.0650   -10.4510    10.4520 C.3          1 ADP601   0.0000
    11 C4'        -62.8130    -9.8950     9.0540 C.3          1 ADP601   0.0000
    12 O4'        -62.1230   -10.8650     8.2600 O.3          1 ADP601   0.0000
    13 C3'        -64.1330    -9.5700     8.3690 C.3          1 ADP601   0.0000
    14 O3'        -64.1800    -8.1910     7.9790 O.3          1 ADP601   0.0000
    15 C2'        -64.1960   -10.4730     7.1510 C.3          1 ADP601   0.0000
    16 O2'        -64.4330    -9.7030     5.9670 O.3          1 ADP601   0.0000
    17 C1'        -62.8500   -11.1790     7.0670 C.3          1 ADP601   0.0000
    18 N9         -63.0540   -12.6510     6.9760 N.pl3        1 ADP601   0.0000
    19 C8         -62.5840   -13.5650     7.8490 C.2          1 ADP601   0.0000
    20 N7         -62.9330   -14.8270     7.4830 N.2          1 ADP601   0.0000
    21 C5         -63.6440   -14.7350     6.3430 C.ar         1 ADP601   0.0000
    22 C6         -64.3120   -15.6860     5.4220 C.ar         1 ADP601   0.0000
    23 N6         -64.2910   -17.0220     5.6500 N.pl3        1 ADP601   0.0000
    24 N1         -64.9440   -15.1750     4.3420 N.ar         1 ADP601   0.0000
    25 C2         -64.9720   -13.8510     4.1010 C.ar         1 ADP601   0.0000
    26 N3         -64.3890   -12.9340     4.8940 N.ar         1 ADP601   0.0000
    27 C4         -63.7160   -13.3020     6.0110 C.ar         1 ADP601   0.0000
    28 H5'1       -63.4800    -9.7395    11.0190 H            1 ADP601   0.0000
    29 H5'2       -63.6869   -11.2315    10.3883 H            1 ADP601   0.0000
    30 H4'        -62.2594    -9.0649     9.1208 H            1 ADP601   0.0000
    31 H3'        -64.8944    -9.7753     8.9839 H            1 ADP601   0.0000
    32 H5         -64.2951    -8.1287     6.9876 H            1 ADP601   0.0000
    33 H2'        -64.9250   -11.1475     7.2674 H            1 ADP601   0.0000
    34 H7         -65.2850   -10.0040     5.5386 H            1 ADP601   0.0000
    35 H1'        -62.3457   -10.8555     6.2664 H            1 ADP601   0.0000
    36 H9         -62.0468   -13.3427     8.6626 H            1 ADP601   0.0000
    37 H10        -64.7484   -17.6448     5.0152 H            1 ADP601   0.0000
    38 H11        -63.8181   -17.3848     6.4530 H            1 ADP601   0.0000
    39 H12        -65.4539   -13.5306     3.2855 H            1 ADP601   0.0000
@<TRIPOS>BOND
     1    1    2      ar
     2    1    3      ar
     3    1    4      ar
     4    1    8       1
     5    5    6      ar
     6    5    7      ar
     7    5    8       1
     8    5    9       1
     9    9   10       1
    10   10   11       1
    11   11   12       1
    12   11   13       1
    13   12   17       1
    14   13   14       1
    15   13   15       1
    16   15   16       1
    17   15   17       1
    18   17   18       1
    19   18   19       1
    20   18   27       1
    21   19   20       2
    22   20   21       1
    23   21   22      ar
    24   21   27      ar
    25   22   23       1
    26   22   24      ar
    27   24   25      ar
    28   25   26      ar
    29   26   27      ar
    30   25   39       1
    31   23   38       1
    32   23   37       1
    33   10   28       1
    34   10   29       1
    35   11   30       1
    36   13   31       1
    37   14   32       1
    38   15   33       1
    39   16   34       1
    40   17   35       1
    41   19   36       1
@<TRIPOS>SUBSTRUCTURE
     1 ADP601      1 GROUP             4 C     ADP     0 **** ADP C 601
