@<TRIPOS>MOLECULE
3wo0_ADP_1_ligand
   39    41     1     0     0
SMALL
NO_CHARGES


@<TRIPOS>ATOM
     1 PB          23.7810    21.2620    44.0850 P.3          1 ADP501   0.0000
     2 O1B         23.2980    21.6810    45.4350 O.co2        1 ADP501   0.0000
     3 O2B         23.9120    19.7920    43.7940 O.co2        1 ADP501  -1.0000
     4 O3B         22.9370    22.0200    43.0270 O.co2        1 ADP501  -1.0000
     5 PA          26.1010    22.5530    42.9040 P.3          1 ADP501   0.0000
     6 O1A         25.3090    22.6140    41.6150 O.co2        1 ADP501   0.0000
     7 O2A         27.5380    22.0630    42.9150 O.co2        1 ADP501  -1.0000
     8 O3A         25.3130    21.7430    44.0750 O.3          1 ADP501   0.0000
     9 O5'         26.1030    24.0230    43.5380 O.3          1 ADP501   0.0000
    10 C5'         24.9340    24.8380    43.4810 C.3          1 ADP501   0.0000
    11 C4'         25.2850    26.1400    42.7600 C.3          1 ADP501   0.0000
    12 O4'         26.2880    26.8470    43.5080 O.3          1 ADP501   0.0000
    13 C3'         25.8410    25.9390    41.3540 C.3          1 ADP501   0.0000
    14 O3'         24.8400    25.9390    40.3300 O.3          1 ADP501   0.0000
    15 C2'         26.7450    27.1440    41.2310 C.3          1 ADP501   0.0000
    16 O2'         25.9810    28.3000    40.9450 O.3          1 ADP501   0.0000
    17 C1'         27.2790    27.3500    42.6300 C.3          1 ADP501   0.0000
    18 N9          28.5450    26.6390    42.7950 N.pl3        1 ADP501   0.0000
    19 C8          28.7330    25.4540    43.3780 C.2          1 ADP501   0.0000
    20 N7          30.0330    25.1120    43.3240 N.2          1 ADP501   0.0000
    21 C5          30.6900    26.0950    42.7010 C.ar         1 ADP501   0.0000
    22 C6          32.0920    26.3870    42.3340 C.ar         1 ADP501   0.0000
    23 N6          33.0820    25.5240    42.6430 N.pl3        1 ADP501   0.0000
    24 N1          32.3430    27.5410    41.6730 N.ar         1 ADP501   0.0000
    25 C2          31.3640    28.4180    41.3870 C.ar         1 ADP501   0.0000
    26 N3          30.0750    28.2220    41.7040 N.ar         1 ADP501   0.0000
    27 C4          29.6920    27.0940    42.3420 C.ar         1 ADP501   0.0000
    28 H5'1        24.6183    25.0403    44.4080 H            1 ADP501   0.0000
    29 H5'2        24.2129    24.3590    42.9804 H            1 ADP501   0.0000
    30 H4'         24.4643    26.7086    42.7038 H            1 ADP501   0.0000
    31 H3'         26.3790    25.0971    41.3118 H            1 ADP501   0.0000
    32 H5          25.2741    25.8032    39.4395 H            1 ADP501   0.0000
    33 H2'         27.4768    27.0006    40.5648 H            1 ADP501   0.0000
    34 H7          25.8961    28.4068    39.9543 H            1 ADP501   0.0000
    35 H1'         27.4156    28.3261    42.7988 H            1 ADP501   0.0000
    36 H9          28.0122    24.9002    43.7947 H            1 ADP501   0.0000
    37 H10         34.0260    25.7342    42.3887 H            1 ADP501   0.0000
    38 H11         32.8718    24.6742    43.1263 H            1 ADP501   0.0000
    39 H12         31.6104    29.2627    40.9119 H            1 ADP501   0.0000
@<TRIPOS>BOND
     1    1    2      ar
     2    1    3      ar
     3    1    4      ar
     4    1    8       1
     5    5    6      ar
     6    5    7      ar
     7    5    8       1
     8    5    9       1
     9    9   10       1
    10   10   11       1
    11   11   12       1
    12   11   13       1
    13   12   17       1
    14   13   14       1
    15   13   15       1
    16   15   16       1
    17   15   17       1
    18   17   18       1
    19   18   19       1
    20   18   27       1
    21   19   20       2
    22   20   21       1
    23   21   22      ar
    24   21   27      ar
    25   22   23       1
    26   22   24      ar
    27   24   25      ar
    28   25   26      ar
    29   26   27      ar
    30   25   39       1
    31   23   38       1
    32   23   37       1
    33   10   28       1
    34   10   29       1
    35   11   30       1
    36   13   31       1
    37   14   32       1
    38   15   33       1
    39   16   34       1
    40   17   35       1
    41   19   36       1
@<TRIPOS>SUBSTRUCTURE
     1 ADP501      1 GROUP             4 A     ADP     0 **** ADP A 501
