@<TRIPOS>MOLECULE
3c27_DKK_1_ligand
   51    52     1     0     0
SMALL
NO_CHARGES


@<TRIPOS>ATOM
     1 C1          11.2340   -11.8410    24.0240 C.2          1 DKK5000   0.0000
     2 O5          13.0470   -11.0050    22.7690 O.3          1 DKK5000   0.0000
     3 C7          13.8110   -11.4750    20.5450 C.3          1 DKK5000   0.0000
     4 C9          16.1450   -12.4770    20.3920 C.2          1 DKK5000   0.0000
     5 C11         17.6400   -12.3090    20.7360 C.3          1 DKK5000   0.0000
     6 C12         18.1960   -13.5850    21.3850 C.ar         1 DKK5000   0.0000
     7 C13         19.4380   -14.0920    20.9140 C.ar         1 DKK5000   0.0000
     8 C14         19.9940   -15.2520    21.4730 C.ar         1 DKK5000   0.0000
     9 C15         19.3090   -15.9160    22.5060 C.ar         1 DKK5000   0.0000
    10 C16         18.0540   -15.4150    22.9840 C.ar         1 DKK5000   0.0000
    11 C19         20.1550   -13.3380    19.7890 C.1          1 DKK5000   0.0000
    12 C22         18.0710   -17.2740    24.6170 C.3          1 DKK5000   0.0000
    13 C30         20.9420   -13.9180    26.1680 C.ar         1 DKK5000   0.0000
    14 C31         19.8240   -14.7250    26.2890 C.ar         1 DKK5000   0.0000
    15 N2          11.1650   -10.7000    24.5560 N.2          1 DKK5000   0.0000
    16 N3          10.4210   -12.9530    24.5080 N.pl3        1 DKK5000   0.0000
    17 N4          12.1990   -12.1080    22.9760 N.pl3        1 DKK5000   0.0000
    18 C6          13.0770   -10.4740    21.4600 C.3          1 DKK5000   0.0000
    19 N8          15.2510   -11.3940    20.7940 N.am         1 DKK5000   0.0000
    20 O10         15.6960   -13.5550    20.1100 O.2          1 DKK5000   0.0000
    21 C17         17.5100   -14.2400    22.4200 C.ar         1 DKK5000   0.0000
    22 F18         16.3160   -13.7560    22.8610 F            1 DKK5000   0.0000
    23 N20         20.6850   -12.7820    18.9580 N.1          1 DKK5000   0.0000
    24 N21         17.3670   -16.1260    24.0650 N.pl3        1 DKK5000   0.0000
    25 C23         18.6150   -16.9550    26.0290 C.3          1 DKK5000   0.0000
    26 F24         17.7260   -16.2500    26.7790 F            1 DKK5000   0.0000
    27 F25         18.8690   -18.1350    26.6550 F            1 DKK5000   0.0000
    28 C26         19.8800   -16.0980    25.9060 C.ar         1 DKK5000   0.0000
    29 N27         21.0370   -16.6250    25.3790 N.ar         1 DKK5000   0.0000
    30 C28         22.1640   -15.8090    25.2500 C.ar         1 DKK5000   0.0000
    31 C29         22.1230   -14.4430    25.6390 C.ar         1 DKK5000   0.0000
    32 H1          13.6246   -11.2514    19.5883 H            1 DKK5000   0.0000
    33 H2          13.4903   -12.4020    20.7393 H            1 DKK5000   0.0000
    34 H3          17.7464   -11.5445    21.3718 H            1 DKK5000   0.0000
    35 H4          18.1502   -12.1185    19.8973 H            1 DKK5000   0.0000
    36 H5          20.8691   -15.6034    21.1402 H            1 DKK5000   0.0000
    37 H6          19.7000   -16.7431    22.9098 H            1 DKK5000   0.0000
    38 H7          18.8350   -17.5103    24.0166 H            1 DKK5000   0.0000
    39 H8          17.4410   -18.0484    24.6752 H            1 DKK5000   0.0000
    40 H9          20.9042   -12.9619    26.4585 H            1 DKK5000   0.0000
    41 H10         18.9719   -14.3433    26.6471 H            1 DKK5000   0.0000
    42 H11         10.5448   -10.5434    25.3246 H            1 DKK5000   0.0000
    43 H12         10.4907   -13.8503    24.0720 H            1 DKK5000   0.0000
    44 H13         13.5620    -9.5995    21.4614 H            1 DKK5000   0.0000
    45 H14         12.1431   -10.3368    21.1298 H            1 DKK5000   0.0000
    46 H15         15.6283   -10.5856    21.2458 H            1 DKK5000   0.0000
    47 H16         16.4701   -15.8403    24.4026 H            1 DKK5000   0.0000
    48 H17         23.0103   -16.1914    24.8791 H            1 DKK5000   0.0000
    49 H18         22.9314   -13.8636    25.5351 H            1 DKK5000   0.0000
    50 H19          9.7944   -12.8174    25.2755 H            1 DKK5000   0.0000
    51 H20         12.2548   -12.9662    22.4657 H            1 DKK5000   0.0000
@<TRIPOS>BOND
     1    1   15       2
     2    1   16       1
     3    1   17       1
     4    2   17       1
     5    2   18       1
     6    3   18       1
     7    3   19       1
     8    4    5       1
     9    4   19      am
    10    4   20       2
    11    5    6       1
    12    6    7      ar
    13    6   21      ar
    14    7    8      ar
    15    7   11       1
    16    8    9      ar
    17    9   10      ar
    18   10   21      ar
    19   10   24       1
    20   11   23       3
    21   12   24       1
    22   12   25       1
    23   13   14      ar
    24   13   31      ar
    25   14   28      ar
    26   21   22       1
    27   25   26       1
    28   25   27       1
    29   25   28       1
    30   28   29      ar
    31   29   30      ar
    32   30   31      ar
    33    3   32       1
    34    3   33       1
    35    5   34       1
    36    5   35       1
    37    8   36       1
    38    9   37       1
    39   12   38       1
    40   12   39       1
    41   13   40       1
    42   14   41       1
    43   31   49       1
    44   15   42       1
    45   16   43       1
    46   16   50       1
    47   18   44       1
    48   18   45       1
    49   19   46       1
    50   24   47       1
    51   30   48       1
    52   17   51       1
@<TRIPOS>SUBSTRUCTURE
     1 DKK5000     1 GROUP             4 B     DKK     0 **** DKK B5000
