@<TRIPOS>MOLECULE
1cbq_RE9_1_ligand
   49    50     1     0     0
SMALL
NO_CHARGES


@<TRIPOS>ATOM
     1 C1          67.3750    42.0010    37.1090 C.3          1 RE9200   0.0000
     2 C2          67.5640    43.5260    36.8180 C.3          1 RE9200   0.0000
     3 C3          69.0620    43.8990    36.6150 C.3          1 RE9200   0.0000
     4 C4          69.6870    43.1990    35.4130 C.3          1 RE9200   0.0000
     5 C5          69.2430    41.7350    35.3620 C.2          1 RE9200   0.0000
     6 C6          69.8540    40.7310    34.5100 C.2          1 RE9200   0.0000
     7 C7          69.1490    39.3800    34.7540 C.3          1 RE9200   0.0000
     8 C8          68.0310    39.7200    35.7790 C.3          1 RE9200   0.0000
     9 C9          68.2230    41.1940    36.0970 C.2          1 RE9200   0.0000
    10 C10         68.5680    38.8640    33.3950 C.3          1 RE9200   0.0000
    11 C11         68.0210    37.4830    33.6540 C.2          1 RE9200   0.0000
    12 C12         68.4710    36.3840    32.9840 C.2          1 RE9200   0.0000
    13 C13         67.9500    35.0050    33.0770 C.2          1 RE9200   0.0000
    14 C14         68.5500    34.0930    32.3180 C.2          1 RE9200   0.0000
    15 C15         68.2380    32.6760    32.1970 C.2          1 RE9200   0.0000
    16 C16         65.9130    41.6280    36.9870 C.3          1 RE9200   0.0000
    17 C17         67.7960    41.6540    38.5400 C.3          1 RE9200   0.0000
    18 C18         70.8590    40.9440    33.6360 C.2          1 RE9200   0.0000
    19 C19         69.9930    38.2830    35.3820 C.3          1 RE9200   0.0000
    20 C20         66.8120    34.7300    33.9690 C.3          1 RE9200   0.0000
    21 O1          67.9960    32.0020    33.2130 O.co2        1 RE9200   0.0000
    22 O2          68.2290    32.1710    31.0570 O.co2        1 RE9200  -1.0000
    23 H1          67.2026    44.0493    37.5897 H            1 RE9200   0.0000
    24 H2          67.0572    43.7618    35.9888 H            1 RE9200   0.0000
    25 H3          69.5702    43.6391    37.4361 H            1 RE9200   0.0000
    26 H4          69.1298    44.8875    36.4800 H            1 RE9200   0.0000
    27 H5          70.6833    43.2393    35.4889 H            1 RE9200   0.0000
    28 H6          69.3976    43.6611    34.5747 H            1 RE9200   0.0000
    29 H7          68.1318    39.1662    36.6055 H            1 RE9200   0.0000
    30 H8          67.1280    39.5614    35.3796 H            1 RE9200   0.0000
    31 H9          69.2900    38.8247    32.7043 H            1 RE9200   0.0000
    32 H10         67.8379    39.4704    33.0799 H            1 RE9200   0.0000
    33 H11         67.3033    37.3691    34.3410 H            1 RE9200   0.0000
    34 H12         69.2393    36.5276    32.3602 H            1 RE9200   0.0000
    35 H13         69.3117    34.4218    31.7598 H            1 RE9200   0.0000
    36 H14         65.8012    40.6521    37.1745 H            1 RE9200   0.0000
    37 H15         65.3779    42.1573    37.6454 H            1 RE9200   0.0000
    38 H16         65.5941    41.8281    36.0606 H            1 RE9200   0.0000
    39 H17         67.6649    40.6753    38.6980 H            1 RE9200   0.0000
    40 H18         68.7600    41.8864    38.6695 H            1 RE9200   0.0000
    41 H19         67.2380    42.1737    39.1869 H            1 RE9200   0.0000
    42 H20         71.2158    40.1860    33.0899 H            1 RE9200   0.0000
    43 H21         71.2473    41.8599    33.5341 H            1 RE9200   0.0000
    44 H22         69.4385    37.4583    35.4933 H            1 RE9200   0.0000
    45 H23         70.7734    38.0826    34.7898 H            1 RE9200   0.0000
    46 H24         70.3223    38.5864    36.2761 H            1 RE9200   0.0000
    47 H25         66.5785    33.7588    33.9218 H            1 RE9200   0.0000
    48 H26         67.0595    34.9680    34.9082 H            1 RE9200   0.0000
    49 H27         66.0248    35.2764    33.6831 H            1 RE9200   0.0000
@<TRIPOS>BOND
     1    1    2       1
     2    1    9       1
     3    1   16       1
     4    1   17       1
     5    2    3       1
     6    3    4       1
     7    4    5       1
     8    5    6       1
     9    5    9       2
    10    6    7       1
    11    6   18       2
    12    7    8       1
    13    7   10       1
    14    7   19       1
    15    8    9       1
    16   10   11       1
    17   11   12       2
    18   12   13       1
    19   13   14       2
    20   13   20       1
    21   14   15       1
    22   15   21      ar
    23   15   22      ar
    24    2   23       1
    25    2   24       1
    26    3   25       1
    27    3   26       1
    28    4   27       1
    29    4   28       1
    30    8   29       1
    31    8   30       1
    32   10   31       1
    33   10   32       1
    34   11   33       1
    35   12   34       1
    36   14   35       1
    37   16   36       1
    38   16   37       1
    39   16   38       1
    40   17   39       1
    41   17   40       1
    42   17   41       1
    43   18   42       1
    44   18   43       1
    45   19   44       1
    46   19   45       1
    47   19   46       1
    48   20   47       1
    49   20   48       1
    50   20   49       1
@<TRIPOS>SUBSTRUCTURE
     1 RE9200      1 GROUP             4 A     RE9     0 **** RE9 A 200
