@<TRIPOS>MOLECULE
3ef5_DGT_1_ligand
   43    45     1     0     0
SMALL
NO_CHARGES


@<TRIPOS>ATOM
     1 PG          29.6400    -7.6180   -15.6360 P.3          1 DGT3800   0.0000
     2 O1G         28.3870    -7.5980   -14.7860 O.co2        1 DGT3800   0.0000
     3 O2G         30.8320    -7.9400   -14.7630 O.co2        1 DGT3800  -1.0000
     4 O3G         29.8490    -6.2730   -16.2950 O.co2        1 DGT3800  -1.0000
     5 O3B         29.4880    -8.7720   -16.7530 O.3          1 DGT3800   0.0000
     6 PB          28.3930    -8.7270   -17.9390 P.3          1 DGT3800   0.0000
     7 O1B         28.6770    -7.5670   -18.8670 O.co2        1 DGT3800   0.0000
     8 O2B         28.3930   -10.0340   -18.7020 O.co2        1 DGT3800  -1.0000
     9 O3A         26.9790    -8.4760   -17.1930 O.3          1 DGT3800   0.0000
    10 PA          26.0790    -9.6770   -16.5990 P.3          1 DGT3800   0.0000
    11 O1A         25.0600   -10.1240   -17.6210 O.co2        1 DGT3800   0.0000
    12 O2A         26.9520   -10.8420   -16.1920 O.co2        1 DGT3800  -1.0000
    13 O5'         25.3350    -9.0110   -15.3290 O.3          1 DGT3800   0.0000
    14 C5'         24.4620    -9.7920   -14.5410 C.3          1 DGT3800   0.0000
    15 C4'         24.2440    -9.1700   -13.1620 C.3          1 DGT3800   0.0000
    16 O4'         23.1770    -9.8360   -12.5160 O.3          1 DGT3800   0.0000
    17 C3'         25.4450    -9.2860   -12.2370 C.3          1 DGT3800   0.0000
    18 O3'         25.7030    -8.0210   -11.6670 O.3          1 DGT3800   0.0000
    19 C2'         25.0510   -10.2950   -11.1670 C.3          1 DGT3800   0.0000
    20 C1'         23.5310   -10.3050   -11.2270 C.3          1 DGT3800   0.0000
    21 N9          22.9060   -11.6250   -10.9760 N.pl3        1 DGT3800   0.0000
    22 C8          22.6820   -12.1940    -9.7480 C.2          1 DGT3800   0.0000
    23 N7          22.0650   -13.3860    -9.9290 N.2          1 DGT3800   0.0000
    24 C5          21.8830   -13.6010   -11.2490 C.2          1 DGT3800   0.0000
    25 C6          21.3130   -14.6500   -11.9700 C.2          1 DGT3800   0.0000
    26 O6          20.8580   -15.6330   -11.3920 O.2          1 DGT3800   0.0000
    27 N1          21.2630   -14.5850   -13.3520 N.pl3        1 DGT3800   0.0000
    28 C2          21.7820   -13.4810   -14.0120 C.2          1 DGT3800   0.0000
    29 N2          21.7420   -13.4100   -15.3380 N.pl3        1 DGT3800   0.0000
    30 N3          22.3460   -12.4440   -13.2890 N.2          1 DGT3800   0.0000
    31 C4          22.4010   -12.4960   -11.9250 C.2          1 DGT3800   0.0000
    32 H5'1        24.8553   -10.7043   -14.4274 H            1 DGT3800   0.0000
    33 H5'2        23.5805    -9.8648   -15.0076 H            1 DGT3800   0.0000
    34 H4'         24.0081    -8.2045   -13.2722 H            1 DGT3800   0.0000
    35 H3'         26.2445    -9.6095   -12.7432 H            1 DGT3800   0.0000
    36 H5          26.4920    -8.0854   -11.0559 H            1 DGT3800   0.0000
    37 H2'1        25.3708   -10.0028   -10.2657 H            1 DGT3800   0.0000
    38 H2'2        25.4225   -11.1998   -11.3754 H            1 DGT3800   0.0000
    39 H1'         23.1839    -9.6572   -10.5489 H            1 DGT3800   0.0000
    40 H9          22.9326   -11.7950    -8.8659 H            1 DGT3800   0.0000
    41 H10         20.8532   -15.3332   -13.8738 H            1 DGT3800   0.0000
    42 H11         22.1180   -12.6111   -15.8075 H            1 DGT3800   0.0000
    43 H12         21.3359   -14.1554   -15.8666 H            1 DGT3800   0.0000
@<TRIPOS>BOND
     1    1    2      ar
     2    1    3      ar
     3    1    4      ar
     4    1    5       1
     5    5    6       1
     6    6    7      ar
     7    6    8      ar
     8    6    9       1
     9    9   10       1
    10   10   11      ar
    11   10   12      ar
    12   10   13       1
    13   13   14       1
    14   14   15       1
    15   15   16       1
    16   15   17       1
    17   16   20       1
    18   17   18       1
    19   17   19       1
    20   19   20       1
    21   20   21       1
    22   21   22       1
    23   21   31       1
    24   22   23       2
    25   23   24       1
    26   24   25       1
    27   24   31       2
    28   25   26       2
    29   25   27       1
    30   27   28       1
    31   28   29       1
    32   28   30       2
    33   30   31       1
    34   29   43       1
    35   29   42       1
    36   27   41       1
    37   22   40       1
    38   14   32       1
    39   14   33       1
    40   15   34       1
    41   17   35       1
    42   18   36       1
    43   19   37       1
    44   19   38       1
    45   20   39       1
@<TRIPOS>SUBSTRUCTURE
     1 DGT3800     1 GROUP             4 A     DGT     0 **** DGT A3800
