@<TRIPOS>MOLECULE
3qsb_743_1_ligand
   59    61     1     0     0
SMALL
NO_CHARGES


@<TRIPOS>ATOM
     1 C1          50.4550     8.2090    43.8450 C.ar         1 743367   0.0000
     2 F1          49.5510     7.3670    44.3680 F            1 743367   0.0000
     3 C2          50.7110     9.4000    44.5190 C.ar         1 743367   0.0000
     4 C3          51.6430    10.2900    43.9530 C.ar         1 743367   0.0000
     5 C4          52.3340     9.9810    42.7820 C.ar         1 743367   0.0000
     6 C5          52.0140     8.7780    42.0800 C.ar         1 743367   0.0000
     7 C6          51.0790     7.9170    42.6170 C.ar         1 743367   0.0000
     8 C7          53.2660    10.8910    42.2780 C.ar         1 743367   0.0000
     9 C8          53.4980    12.1260    42.9320 C.ar         1 743367   0.0000
    10 C9          54.4070    13.0430    42.3870 C.ar         1 743367   0.0000
    11 C10         55.1410    12.7630    41.2400 C.ar         1 743367   0.0000
    12 C11         54.9090    11.5510    40.5880 C.ar         1 743367   0.0000
    13 C12         53.9690    10.6240    41.1120 C.ar         1 743367   0.0000
    14 C13         56.1600    13.7540    40.6840 C.3          1 743367   0.0000
    15 O14         57.4210    13.7230    41.4180 O.3          1 743367   0.0000
    16 N15         58.1890    14.8600    41.3690 N.2          1 743367   0.0000
    17 C16         58.7630    15.3080    42.4050 C.2          1 743367   0.0000
    18 C17         58.6470    14.6530    43.7710 C.3          1 743367   0.0000
    19 C18         57.2810    14.7900    44.4230 C.2          1 743367   0.0000
    20 O18         56.4650    15.6300    44.0210 O.2          1 743367   0.0000
    21 C19         57.0520    13.9240    45.6450 C.3          1 743367   0.0000
    22 C20         57.6800    12.4990    45.5550 C.3          1 743367   0.0000
    23 C21         59.1720    12.6450    45.3700 C.3          1 743367   0.0000
    24 C22         59.4410    13.4150    44.0900 C.2          1 743367   0.0000
    25 O22         60.4190    13.1410    43.4290 O.2          1 743367   0.0000
    26 C23         55.6470    13.7970    46.1280 C.1          1 743367   0.0000
    27 N23         54.5470    13.6580    46.5480 N.1          1 743367   0.0000
    28 C24         57.3820    11.7960    46.8740 C.3          1 743367   0.0000
    29 C25         57.1400    11.6230    44.3940 C.3          1 743367   0.0000
    30 C26         59.5060    16.6200    42.2990 C.3          1 743367   0.0000
    31 C27         60.8690    16.6040    41.6300 C.3          1 743367   0.0000
    32 C28         61.4430    18.0040    41.7420 C.3          1 743367   0.0000
    33 H1          50.2473     9.6163    45.3782 H            1 743367   0.0000
    34 H2          51.8141    11.1668    44.4024 H            1 743367   0.0000
    35 H3          52.4614     8.5632    41.2118 H            1 743367   0.0000
    36 H4          50.8421     7.0769    42.1290 H            1 743367   0.0000
    37 H5          53.0146    12.3429    43.7801 H            1 743367   0.0000
    38 H6          54.5316    13.9270    42.8376 H            1 743367   0.0000
    39 H7          55.4068    11.3343    39.7482 H            1 743367   0.0000
    40 H8          53.8107     9.7617    40.6309 H            1 743367   0.0000
    41 H9          55.7768    14.6758    40.7421 H            1 743367   0.0000
    42 H10         56.3396    13.5274    39.7267 H            1 743367   0.0000
    43 H11         59.1562    15.3192    44.3159 H            1 743367   0.0000
    44 H12         57.5438    14.3810    46.3862 H            1 743367   0.0000
    45 H13         59.5922    11.7395    45.3106 H            1 743367   0.0000
    46 H14         59.5587    13.1416    46.1470 H            1 743367   0.0000
    47 H15         57.7702    10.8746    46.8558 H            1 743367   0.0000
    48 H16         57.7880    12.3140    47.6269 H            1 743367   0.0000
    49 H17         56.3923    11.7382    47.0047 H            1 743367   0.0000
    50 H18         57.5934    10.7318    44.4101 H            1 743367   0.0000
    51 H19         56.1538    11.4973    44.5021 H            1 743367   0.0000
    52 H20         57.3247    12.0752    43.5214 H            1 743367   0.0000
    53 H21         59.6327    16.9679    43.2279 H            1 743367   0.0000
    54 H22         58.9268    17.2510    41.7829 H            1 743367   0.0000
    55 H23         60.7749    16.3487    40.6677 H            1 743367   0.0000
    56 H24         61.4689    15.9503    42.0912 H            1 743367   0.0000
    57 H25         62.3444    18.0302    41.3099 H            1 743367   0.0000
    58 H26         60.8344    18.6515    41.2832 H            1 743367   0.0000
    59 H27         61.5284    18.2530    42.7067 H            1 743367   0.0000
@<TRIPOS>BOND
     1    1    2       1
     2    1    3      ar
     3    1    7      ar
     4    3    4      ar
     5    4    5      ar
     6    5    6      ar
     7    5    8       1
     8    6    7      ar
     9    8    9      ar
    10    8   13      ar
    11    9   10      ar
    12   10   11      ar
    13   11   12      ar
    14   11   14       1
    15   12   13      ar
    16   14   15       1
    17   15   16       1
    18   16   17       2
    19   17   18       1
    20   17   30       1
    21   18   19       1
    22   18   24       1
    23   19   20       2
    24   19   21       1
    25   21   22       1
    26   21   26       1
    27   22   23       1
    28   22   28       1
    29   22   29       1
    30   23   24       1
    31   24   25       2
    32   26   27       3
    33   30   31       1
    34   31   32       1
    35    3   33       1
    36    4   34       1
    37    6   35       1
    38    7   36       1
    39    9   37       1
    40   10   38       1
    41   12   39       1
    42   13   40       1
    43   14   41       1
    44   14   42       1
    45   18   43       1
    46   21   44       1
    47   23   45       1
    48   23   46       1
    49   28   47       1
    50   28   48       1
    51   28   49       1
    52   29   50       1
    53   29   51       1
    54   29   52       1
    55   30   53       1
    56   30   54       1
    57   31   55       1
    58   31   56       1
    59   32   57       1
    60   32   58       1
    61   32   59       1
@<TRIPOS>SUBSTRUCTURE
     1 743367      1 GROUP             4 A     743     0 **** 743 A 367
