@<TRIPOS>MOLECULE
1w78_PD8_1_ligand
   38    40     1     0     0
SMALL
NO_CHARGES


@<TRIPOS>ATOM
     1 O1          -8.6850    16.0140    23.9100 O.2          1 PD81421   0.0000
     2 C2          -7.4900    16.2110    23.7080 C.2          1 PD81421   0.0000
     3 N3          -7.0690    17.0500    22.6580 N.pl3        1 PD81421   0.0000
     4 C4          -5.7520    17.2930    22.3780 C.2          1 PD81421   0.0000
     5 N5          -5.5500    18.1250    21.3150 N.pl3        1 PD81421   0.0000
     6 N6          -4.7550    16.7740    23.0430 N.2          1 PD81421   0.0000
     7 C7          -5.0470    15.9510    24.0830 C.ar         1 PD81421   0.0000
     8 N8          -4.0660    15.3420    24.8360 N.ar         1 PD81421   0.0000
     9 C9          -4.3740    14.5200    25.9130 C.ar         1 PD81421   0.0000
    10 C10         -5.7150    14.2930    26.2600 C.ar         1 PD81421   0.0000
    11 C11         -6.1440    13.4220    27.4320 C.3          1 PD81421   0.0000
    12 N12         -5.4190    13.6970    28.6760 N.pl3        1 PD81421   0.0000
    13 C13         -4.3650    12.7920    29.0490 C.ar         1 PD81421   0.0000
    14 C14         -3.4830    13.0520    30.1310 C.ar         1 PD81421   0.0000
    15 C15         -2.4890    12.1270    30.4380 C.ar         1 PD81421   0.0000
    16 C16         -2.3370    10.9290    29.7090 C.ar         1 PD81421   0.0000
    17 C17         -1.2370    10.0190    30.0970 C.2          1 PD81421   0.0000
    18 O19         -1.1310     8.9000    29.6360 O.2          1 PD81421   0.0000
    19 C20         -3.2030    10.6440    28.6230 C.ar         1 PD81421   0.0000
    20 C21         -4.2020    11.5610    28.3070 C.ar         1 PD81421   0.0000
    21 N22         -6.6630    14.8470    25.5150 N.ar         1 PD81421   0.0000
    22 C23         -6.3560    15.6410    24.4720 C.ar         1 PD81421   0.0000
    23 P23          1.0400     9.9270    31.4120 P.3          1 PD81421   0.0000
    24 O24          1.6250     9.1140    30.2670 O.co2        1 PD81421   0.0000
    25 O25          0.7940     9.0550    32.6050 O.co2        1 PD81421  -1.0000
    26 O26          2.0510    11.0990    31.8140 O.co2        1 PD81421  -1.0000
    27 O27         -0.3430    10.6510    31.0050 O.3          1 PD81421   0.0000
    28 H1          -7.7656    17.4888    22.0903 H            1 PD81421   0.0000
    29 H2          -4.6196    18.3611    21.0345 H            1 PD81421   0.0000
    30 H3          -6.3324    18.4985    20.8166 H            1 PD81421   0.0000
    31 H4          -3.6410    14.0905    26.4405 H            1 PD81421   0.0000
    32 H5          -5.9923    12.4650    27.1846 H            1 PD81421   0.0000
    33 H6          -7.1188    13.5734    27.5961 H            1 PD81421   0.0000
    34 H7          -5.6491    14.4862    29.2454 H            1 PD81421   0.0000
    35 H8          -3.5750    13.8911    30.6671 H            1 PD81421   0.0000
    36 H9          -1.8655    12.3171    31.1963 H            1 PD81421   0.0000
    37 H10         -3.0984     9.8014    28.0947 H            1 PD81421   0.0000
    38 H11         -4.8224    11.3636    27.5480 H            1 PD81421   0.0000
@<TRIPOS>BOND
     1    1    2       2
     2    2    3       1
     3    2   22       1
     4    3    4       1
     5    4    5       1
     6    4    6       2
     7    6    7       1
     8    7    8      ar
     9    7   22      ar
    10    8    9      ar
    11    9   10      ar
    12   10   11       1
    13   10   21      ar
    14   11   12       1
    15   12   13       1
    16   13   14      ar
    17   13   20      ar
    18   14   15      ar
    19   15   16      ar
    20   16   17       1
    21   16   19      ar
    22   17   18       2
    23   17   27       1
    24   19   20      ar
    25   21   22      ar
    26   23   24      ar
    27   23   25      ar
    28   23   26      ar
    29   23   27       1
    30    3   28       1
    31    5   29       1
    32    5   30       1
    33    9   31       1
    34   11   32       1
    35   11   33       1
    36   12   34       1
    37   14   35       1
    38   15   36       1
    39   19   37       1
    40   20   38       1
@<TRIPOS>SUBSTRUCTURE
     1 PD81421     1 GROUP             4 A     PD8     0 **** PD8 A1421
