@<TRIPOS>MOLECULE
4nyj_GNP_1_ligand
   45    47     1     0     0
SMALL
NO_CHARGES


@<TRIPOS>ATOM
     1 PG         -51.4340    15.0190   -19.2820 P.3          1 GNP202   0.0000
     2 O1G        -50.2660    15.2640   -20.2000 O.co2        1 GNP202   0.0000
     3 O2G        -51.3430    13.7620   -18.4710 O.co2        1 GNP202  -1.0000
     4 O3G        -51.5210    16.2600   -18.4510 O.co2        1 GNP202  -1.0000
     5 N3B        -52.7820    14.9100   -20.1430 N.3          1 GNP202   0.0000
     6 PB         -53.1260    15.7390   -21.4800 P.3          1 GNP202   0.0000
     7 O1B        -51.9210    16.0440   -22.2710 O.co2        1 GNP202   0.0000
     8 O2B        -53.9000    16.9110   -21.0620 O.co2        1 GNP202  -1.0000
     9 O3A        -54.0690    14.8720   -22.3140 O.3          1 GNP202   0.0000
    10 PA         -53.7360    14.1300   -23.6100 P.3          1 GNP202   0.0000
    11 O1A        -53.5000    15.1040   -24.6840 O.co2        1 GNP202   0.0000
    12 O2A        -52.7000    13.0940   -23.4290 O.co2        1 GNP202  -1.0000
    13 O5'        -55.0500    13.4030   -24.0390 O.3          1 GNP202   0.0000
    14 C5'        -55.7110    12.5350   -23.1650 C.3          1 GNP202   0.0000
    15 C4'        -56.6500    11.6230   -23.9340 C.3          1 GNP202   0.0000
    16 O4'        -57.7390    12.4110   -24.4540 O.3          1 GNP202   0.0000
    17 C3'        -56.0770    10.8830   -25.1330 C.3          1 GNP202   0.0000
    18 O3'        -56.6590     9.5900   -25.2100 O.3          1 GNP202   0.0000
    19 C2'        -56.5220    11.7470   -26.3000 C.3          1 GNP202   0.0000
    20 O2'        -56.5950    11.0000   -27.4900 O.3          1 GNP202   0.0000
    21 C1'        -57.8980    12.2130   -25.8320 C.3          1 GNP202   0.0000
    22 N9         -58.3110    13.4990   -26.3910 N.pl3        1 GNP202   0.0000
    23 C8         -57.6120    14.6750   -26.3140 C.2          1 GNP202   0.0000
    24 N7         -58.2060    15.6690   -26.9090 N.2          1 GNP202   0.0000
    25 C5         -59.3770    15.1220   -27.4070 C.2          1 GNP202   0.0000
    26 C6         -60.4220    15.7170   -28.1460 C.2          1 GNP202   0.0000
    27 O6         -60.5260    16.8850   -28.5210 O.2          1 GNP202   0.0000
    28 N1         -61.4220    14.8140   -28.4580 N.pl3        1 GNP202   0.0000
    29 C2         -61.4140    13.4970   -28.0990 C.2          1 GNP202   0.0000
    30 N2         -62.4680    12.7670   -28.4830 N.pl3        1 GNP202   0.0000
    31 N3         -60.4420    12.9290   -27.4110 N.2          1 GNP202   0.0000
    32 C4         -59.4550    13.7920   -27.0980 C.2          1 GNP202   0.0000
    33 H3B        -52.8453    13.9480   -20.4086 H            1 GNP202   0.0000
    34 H5'1       -56.2385    13.0703   -22.5053 H            1 GNP202   0.0000
    35 H5'2       -55.0361    11.9792   -22.6796 H            1 GNP202   0.0000
    36 H4'        -57.0251    10.9488   -23.2978 H            1 GNP202   0.0000
    37 H3'        -55.0798    10.8287   -25.0823 H            1 GNP202   0.0000
    38 H6         -56.2835     9.1018   -25.9978 H            1 GNP202   0.0000
    39 H2'        -55.9071    12.5275   -26.4130 H            1 GNP202   0.0000
    40 H8         -55.9718    11.3906   -28.1675 H            1 GNP202   0.0000
    41 H1'        -58.5882    11.5119   -26.0109 H            1 GNP202   0.0000
    42 H10        -56.7321    14.7613   -25.8467 H            1 GNP202   0.0000
    43 H11        -62.2047    15.1489   -28.9826 H            1 GNP202   0.0000
    44 H12        -62.5161    11.7962   -28.2481 H            1 GNP202   0.0000
    45 H13        -63.2074    13.1924   -29.0048 H            1 GNP202   0.0000
@<TRIPOS>BOND
     1    1    2      ar
     2    1    3      ar
     3    1    4      ar
     4    1    5       1
     5    5    6       1
     6    6    7      ar
     7    6    8      ar
     8    6    9       1
     9    9   10       1
    10   10   11      ar
    11   10   12      ar
    12   10   13       1
    13   13   14       1
    14   14   15       1
    15   15   16       1
    16   15   17       1
    17   16   21       1
    18   17   18       1
    19   17   19       1
    20   19   20       1
    21   19   21       1
    22   21   22       1
    23   22   23       1
    24   22   32       1
    25   23   24       2
    26   24   25       1
    27   25   26       1
    28   25   32       2
    29   26   27       2
    30   26   28       1
    31   28   29       1
    32   29   30       1
    33   29   31       2
    34   31   32       1
    35   30   45       1
    36   30   44       1
    37    5   33       1
    38   28   43       1
    39   23   42       1
    40   14   34       1
    41   14   35       1
    42   15   36       1
    43   17   37       1
    44   18   38       1
    45   19   39       1
    46   20   40       1
    47   21   41       1
@<TRIPOS>SUBSTRUCTURE
     1 GNP202      1 GROUP             4 Q     GNP     0 **** GNP Q 202
