@<TRIPOS>MOLECULE
4yjd_FAD_2_ligand
   84    89     1     0     0
SMALL
NO_CHARGES


@<TRIPOS>ATOM
     1 PA         -35.3730   -57.5060    11.6780 P.3          1 FAD401   0.0000
     2 O1A        -34.5340   -58.2940    12.6440 O.co2        1 FAD401   0.0000
     3 O2A        -35.3340   -56.0100    11.8360 O.co2        1 FAD401  -1.0000
     4 O5B        -36.9250   -57.9610    11.6650 O.3          1 FAD401   0.0000
     5 C5B        -37.1600   -59.3470    11.8610 C.3          1 FAD401   0.0000
     6 C4B        -38.6190   -59.5170    12.1950 C.3          1 FAD401   0.0000
     7 O4B        -39.0330   -60.8540    12.0090 O.3          1 FAD401   0.0000
     8 C3B        -38.9300   -59.2280    13.6460 C.3          1 FAD401   0.0000
     9 O3B        -40.1780   -58.5430    13.6670 O.3          1 FAD401   0.0000
    10 C2B        -39.0790   -60.5950    14.2860 C.3          1 FAD401   0.0000
    11 O2B        -39.8960   -60.5130    15.4510 O.3          1 FAD401   0.0000
    12 C1B        -39.7710   -61.2910    13.1380 C.3          1 FAD401   0.0000
    13 N9A        -39.8170   -62.7750    13.1390 N.pl3        1 FAD401   0.0000
    14 C8A        -38.8260   -63.5870    12.7320 C.2          1 FAD401   0.0000
    15 N7A        -39.2000   -64.8900    12.8280 N.2          1 FAD401   0.0000
    16 C5A        -40.4460   -64.9040    13.2990 C.ar         1 FAD401   0.0000
    17 C6A        -41.4280   -65.9430    13.6030 C.ar         1 FAD401   0.0000
    18 N6A        -41.0530   -67.2240    13.4350 N.pl3        1 FAD401   0.0000
    19 N1A        -42.6520   -65.5750    14.0710 N.ar         1 FAD401   0.0000
    20 C2A        -42.9530   -64.2760    14.2230 C.ar         1 FAD401   0.0000
    21 N3A        -42.0920   -63.2690    13.9540 N.ar         1 FAD401   0.0000
    22 C4A        -40.8520   -63.5180    13.4980 C.ar         1 FAD401   0.0000
    23 N1         -28.2650   -51.3620     7.7590 N.2          1 FAD401   0.0000
    24 C2         -28.1710   -50.1560     7.1840 C.2          1 FAD401   0.0000
    25 O2         -28.6650   -50.0300     6.0560 O.2          1 FAD401   0.0000
    26 N3         -27.5410   -49.0930     7.7600 N.pl3        1 FAD401   0.0000
    27 C4         -26.9630   -49.1590     8.9760 C.2          1 FAD401   0.0000
    28 O4         -26.3890   -48.1730     9.5320 O.2          1 FAD401   0.0000
    29 C4X        -27.0350   -50.4440     9.6650 C.2          1 FAD401   0.0000
    30 N5         -26.4610   -50.5950    10.8700 N.2          1 FAD401   0.0000
    31 C5X        -26.5220   -51.7690    11.5060 C.ar         1 FAD401   0.0000
    32 C6         -25.9130   -51.8700    12.7430 C.ar         1 FAD401   0.0000
    33 C7         -25.9640   -53.0570    13.4510 C.ar         1 FAD401   0.0000
    34 C7M        -25.3260   -53.1910    14.8060 C.3          1 FAD401   0.0000
    35 C8         -26.6400   -54.2170    12.8580 C.ar         1 FAD401   0.0000
    36 C8M        -26.6470   -55.4910    13.6610 C.3          1 FAD401   0.0000
    37 C9         -27.2410   -54.1320    11.5920 C.ar         1 FAD401   0.0000
    38 C9A        -27.2090   -52.9450    10.8990 C.ar         1 FAD401   0.0000
    39 N10        -27.7860   -52.8220     9.6340 N.pl3        1 FAD401   0.0000
    40 C10        -27.7140   -51.5720     8.9790 C.2          1 FAD401   0.0000
    41 C1'        -28.4590   -53.9320     8.9980 C.3          1 FAD401   0.0000
    42 C2'        -29.9250   -53.8720     9.3770 C.3          1 FAD401   0.0000
    43 O2'        -30.0130   -53.6400    10.7950 O.3          1 FAD401   0.0000
    44 C3'        -30.6220   -55.1720     8.9630 C.3          1 FAD401   0.0000
    45 O3'        -30.3320   -55.5120     7.6040 O.3          1 FAD401   0.0000
    46 C4'        -32.1180   -55.0220     9.0890 C.3          1 FAD401   0.0000
    47 O4'        -32.4440   -54.4770    10.3880 O.3          1 FAD401   0.0000
    48 C5'        -32.7940   -56.3640     8.9220 C.3          1 FAD401   0.0000
    49 O5'        -34.1860   -56.0840     8.7780 O.3          1 FAD401   0.0000
    50 P          -35.2290   -57.2810     8.8380 P.3          1 FAD401   0.0000
    51 O1P        -34.8320   -58.2500     7.7410 O.co2        1 FAD401   0.0000
    52 O2P        -36.5990   -56.6380     8.9450 O.co2        1 FAD401  -1.0000
    53 O3P        -34.9560   -58.0550    10.2230 O.3          1 FAD401   0.0000
    54 H5B1       -36.5958   -59.6857    12.6140 H            1 FAD401   0.0000
    55 H5B2       -36.9399   -59.8519    11.0263 H            1 FAD401   0.0000
    56 H4B        -39.1655   -58.9158    11.6120 H            1 FAD401   0.0000
    57 H3B        -38.2060   -58.6923    14.0806 H            1 FAD401   0.0000
    58 H5         -40.4255   -58.3301    14.6122 H            1 FAD401   0.0000
    59 H2B        -38.1905   -61.0077    14.4864 H            1 FAD401   0.0000
    60 H7         -39.9844   -61.4209    15.8607 H            1 FAD401   0.0000
    61 H1B        -40.7049   -60.9409    13.0663 H            1 FAD401   0.0000
    62 H8A        -37.9347   -63.2747    12.4033 H            1 FAD401   0.0000
    63 H6A1       -41.6966   -67.9634    13.6324 H            1 FAD401   0.0000
    64 H6A2       -40.1306   -67.4368    13.1127 H            1 FAD401   0.0000
    65 H2A        -43.8664   -64.0394    14.5542 H            1 FAD401   0.0000
    66 H13        -27.5062   -48.2280     7.2594 H            1 FAD401   0.0000
    67 H14        -25.4334   -51.0813    13.1276 H            1 FAD401   0.0000
    68 H7M1       -25.4702   -54.1180    15.1521 H            1 FAD401   0.0000
    69 H7M2       -24.3450   -53.0118    14.7317 H            1 FAD401   0.0000
    70 H7M3       -25.7385   -52.5323    15.4353 H            1 FAD401   0.0000
    71 H8M1       -27.1340   -56.2020    13.1538 H            1 FAD401   0.0000
    72 H8M2       -25.7059   -55.7854    13.8272 H            1 FAD401   0.0000
    73 H8M3       -27.1057   -55.3315    14.5352 H            1 FAD401   0.0000
    74 H21        -27.6909   -54.9323    11.1956 H            1 FAD401   0.0000
    75 H1'1       -28.0624   -54.7944     9.3127 H            1 FAD401   0.0000
    76 H1'2       -28.3623   -53.8633     8.0051 H            1 FAD401   0.0000
    77 H2'        -30.3533   -53.1070     8.8960 H            1 FAD401   0.0000
    78 H25        -30.8477   -54.0607    11.1504 H            1 FAD401   0.0000
    79 H3'        -30.3150   -55.9135     9.5596 H            1 FAD401   0.0000
    80 H27        -29.5128   -56.0846     7.5712 H            1 FAD401   0.0000
    81 H4'        -32.4464   -54.3984     8.3795 H            1 FAD401   0.0000
    82 H29        -33.4359   -54.3786    10.4688 H            1 FAD401   0.0000
    83 H5'1       -32.6355   -56.9361     9.7267 H            1 FAD401   0.0000
    84 H5'2       -32.4466   -56.8298     8.1081 H            1 FAD401   0.0000
@<TRIPOS>BOND
     1    1    2      ar
     2    1    3      ar
     3    1    4       1
     4    1   53       1
     5    4    5       1
     6    5    6       1
     7    6    7       1
     8    6    8       1
     9    7   12       1
    10    8    9       1
    11    8   10       1
    12   10   11       1
    13   10   12       1
    14   12   13       1
    15   13   14       1
    16   13   22       1
    17   14   15       2
    18   15   16       1
    19   16   17      ar
    20   16   22      ar
    21   17   18       1
    22   17   19      ar
    23   19   20      ar
    24   20   21      ar
    25   21   22      ar
    26   23   24       1
    27   23   40       2
    28   24   25       2
    29   24   26       1
    30   26   27       1
    31   27   28       2
    32   27   29       1
    33   29   30       2
    34   29   40       1
    35   30   31       1
    36   31   32      ar
    37   31   38      ar
    38   32   33      ar
    39   33   34       1
    40   33   35      ar
    41   35   36       1
    42   35   37      ar
    43   37   38      ar
    44   38   39       1
    45   39   40       1
    46   39   41       1
    47   41   42       1
    48   42   43       1
    49   42   44       1
    50   44   45       1
    51   44   46       1
    52   46   47       1
    53   46   48       1
    54   48   49       1
    55   49   50       1
    56   50   51      ar
    57   50   52      ar
    58   50   53       1
    59   48   84       1
    60    5   54       1
    61    5   55       1
    62    6   56       1
    63    8   57       1
    64    9   58       1
    65   10   59       1
    66   11   60       1
    67   12   61       1
    68   14   62       1
    69   18   63       1
    70   18   64       1
    71   20   65       1
    72   26   66       1
    73   32   67       1
    74   34   68       1
    75   34   69       1
    76   34   70       1
    77   36   71       1
    78   36   72       1
    79   36   73       1
    80   37   74       1
    81   41   75       1
    82   41   76       1
    83   42   77       1
    84   43   78       1
    85   44   79       1
    86   45   80       1
    87   46   81       1
    88   47   82       1
    89   48   83       1
@<TRIPOS>SUBSTRUCTURE
     1 FAD401      1 GROUP             4 B     FAD     0 **** FAD B 401
