@<TRIPOS>MOLECULE
3d72_FAD_2_ligand
   84    89     1     0     0
SMALL
NO_CHARGES


@<TRIPOS>ATOM
     1 PA          21.2660   -30.6430    37.5510 P.3          1 FAD201   0.0000
     2 O1A         20.1780   -31.5910    37.9330 O.co2        1 FAD201   0.0000
     3 O2A         21.8880   -29.8260    38.6190 O.co2        1 FAD201  -1.0000
     4 O5B         22.3650   -31.4880    36.7790 O.3          1 FAD201   0.0000
     5 C5B         23.5940   -30.9470    36.2620 C.3          1 FAD201   0.0000
     6 C4B         24.5240   -32.1300    35.9920 C.3          1 FAD201   0.0000
     7 O4B         25.8060   -31.5900    35.6140 O.3          1 FAD201   0.0000
     8 C3B         24.7540   -33.0810    37.1900 C.3          1 FAD201   0.0000
     9 O3B         24.4150   -34.4270    36.9360 O.3          1 FAD201   0.0000
    10 C2B         26.2250   -32.8970    37.5800 C.3          1 FAD201   0.0000
    11 O2B         26.9710   -34.0430    37.9070 O.3          1 FAD201   0.0000
    12 C1B         26.8610   -32.1060    36.4460 C.3          1 FAD201   0.0000
    13 N9A         27.6450   -30.9610    36.8690 N.pl3        1 FAD201   0.0000
    14 C8A         27.2220   -29.8680    37.5680 C.2          1 FAD201   0.0000
    15 N7A         28.1670   -28.9890    37.8320 N.2          1 FAD201   0.0000
    16 C5A         29.3070   -29.5780    37.3070 C.ar         1 FAD201   0.0000
    17 C6A         30.6810   -29.1260    37.2450 C.ar         1 FAD201   0.0000
    18 N6A         31.0700   -27.9710    37.7980 N.pl3        1 FAD201   0.0000
    19 N1A         31.5970   -29.9450    36.6380 N.ar         1 FAD201   0.0000
    20 C2A         31.1690   -31.1260    36.0920 C.ar         1 FAD201   0.0000
    21 N3A         29.9130   -31.6280    36.0710 N.ar         1 FAD201   0.0000
    22 C4A         29.0140   -30.7740    36.7340 C.ar         1 FAD201   0.0000
    23 N1          16.5640   -30.6920    28.5760 N.2          1 FAD201   0.0000
    24 C2          16.4510   -31.7820    27.7630 C.2          1 FAD201   0.0000
    25 O2          17.1010   -32.8440    27.9600 O.2          1 FAD201   0.0000
    26 N3          15.5850   -31.7260    26.6500 N.pl3        1 FAD201   0.0000
    27 C4          14.7960   -30.6180    26.3070 C.2          1 FAD201   0.0000
    28 O4          14.0560   -30.6620    25.2950 O.2          1 FAD201   0.0000
    29 C4X         14.9160   -29.5000    27.1650 C.2          1 FAD201   0.0000
    30 N5          14.1520   -28.3420    26.8910 N.2          1 FAD201   0.0000
    31 C5X         14.2800   -27.2510    27.7490 C.ar         1 FAD201   0.0000
    32 C6          13.5000   -26.0650    27.5010 C.ar         1 FAD201   0.0000
    33 C7          13.5770   -24.9560    28.3300 C.ar         1 FAD201   0.0000
    34 C7M         12.7120   -23.7320    27.9950 C.3          1 FAD201   0.0000
    35 C8          14.4260   -24.9750    29.4630 C.ar         1 FAD201   0.0000
    36 C8M         14.5480   -23.8050    30.4120 C.3          1 FAD201   0.0000
    37 C9          15.2170   -26.1480    29.7250 C.ar         1 FAD201   0.0000
    38 C9A         15.1650   -27.2830    28.8990 C.ar         1 FAD201   0.0000
    39 N10         15.9470   -28.4800    29.1470 N.pl3        1 FAD201   0.0000
    40 C10         15.8110   -29.5740    28.2950 C.2          1 FAD201   0.0000
    41 C1'         16.9050   -28.5690    30.2770 C.3          1 FAD201   0.0000
    42 C2'         16.4200   -29.0540    31.6450 C.3          1 FAD201   0.0000
    43 O2'         15.1190   -28.5300    31.9150 O.3          1 FAD201   0.0000
    44 C3'         17.4650   -28.6280    32.7000 C.3          1 FAD201   0.0000
    45 O3'         17.6000   -27.2080    32.6430 O.3          1 FAD201   0.0000
    46 C4'         18.8610   -29.2840    32.4600 C.3          1 FAD201   0.0000
    47 O4'         18.7560   -30.6940    32.6240 O.3          1 FAD201   0.0000
    48 C5'         19.9480   -28.7380    33.4000 C.3          1 FAD201   0.0000
    49 O5'         19.3940   -28.3430    34.6680 O.3          1 FAD201   0.0000
    50 P           19.2330   -29.3660    35.8760 P.3          1 FAD201   0.0000
    51 O1P         18.3610   -28.7110    36.8510 O.co2        1 FAD201   0.0000
    52 O2P         18.7840   -30.6960    35.3490 O.co2        1 FAD201  -1.0000
    53 O3P         20.6810   -29.5890    36.5060 O.3          1 FAD201   0.0000
    54 H5B1        24.0073   -30.3313    36.9329 H            1 FAD201   0.0000
    55 H5B2        23.4192   -30.4469    35.4138 H            1 FAD201   0.0000
    56 H4B         24.1586   -32.6590    35.2261 H            1 FAD201   0.0000
    57 H3B         24.1908   -32.7596    37.9512 H            1 FAD201   0.0000
    58 H5          24.5909   -34.9751    37.7537 H            1 FAD201   0.0000
    59 H2B         26.2374   -32.3055    38.3862 H            1 FAD201   0.0000
    60 H7          26.5509   -34.5021    38.6898 H            1 FAD201   0.0000
    61 H1B         27.4380   -32.7164    35.9034 H            1 FAD201   0.0000
    62 H8A         26.2724   -29.7444    37.8562 H            1 FAD201   0.0000
    63 H6A1        32.0265   -27.6854    37.7387 H            1 FAD201   0.0000
    64 H6A2        30.4041   -27.3936    38.2705 H            1 FAD201   0.0000
    65 H2A         31.8722   -31.6866    35.6547 H            1 FAD201   0.0000
    66 H13         15.5299   -32.5343    26.0638 H            1 FAD201   0.0000
    67 H14         12.8875   -26.0411    26.7109 H            1 FAD201   0.0000
    68 H7M1        12.8709   -23.0155    28.6743 H            1 FAD201   0.0000
    69 H7M2        12.9551   -23.3904    27.0871 H            1 FAD201   0.0000
    70 H7M3        11.7467   -23.9930    28.0055 H            1 FAD201   0.0000
    71 H8M1        15.1979   -24.0308    31.1377 H            1 FAD201   0.0000
    72 H8M2        14.8727   -23.0024    29.9116 H            1 FAD201   0.0000
    73 H8M3        13.6541   -23.6077    30.8146 H            1 FAD201   0.0000
    74 H21         15.8230   -26.1555    30.5204 H            1 FAD201   0.0000
    75 H1'1        17.2815   -27.6523    30.4110 H            1 FAD201   0.0000
    76 H1'2        17.6343   -29.1904    29.9907 H            1 FAD201   0.0000
    77 H2'         16.3670   -30.0525    31.6310 H            1 FAD201   0.0000
    78 H25         14.8094   -28.8512    32.8100 H            1 FAD201   0.0000
    79 H3'         17.1353   -28.8874    33.6078 H            1 FAD201   0.0000
    80 H27         18.2734   -26.9098    33.3195 H            1 FAD201   0.0000
    81 H4'         19.1380   -29.0972    31.5175 H            1 FAD201   0.0000
    82 H29         18.4459   -30.8994    33.5522 H            1 FAD201   0.0000
    83 H5'1        20.3799   -27.9441    32.9719 H            1 FAD201   0.0000
    84 H5'2        20.6343   -29.4493    33.5520 H            1 FAD201   0.0000
@<TRIPOS>BOND
     1    1    2      ar
     2    1    3      ar
     3    1    4       1
     4    1   53       1
     5    4    5       1
     6    5    6       1
     7    6    7       1
     8    6    8       1
     9    7   12       1
    10    8    9       1
    11    8   10       1
    12   10   11       1
    13   10   12       1
    14   12   13       1
    15   13   14       1
    16   13   22       1
    17   14   15       2
    18   15   16       1
    19   16   17      ar
    20   16   22      ar
    21   17   18       1
    22   17   19      ar
    23   19   20      ar
    24   20   21      ar
    25   21   22      ar
    26   23   24       1
    27   23   40       2
    28   24   25       2
    29   24   26       1
    30   26   27       1
    31   27   28       2
    32   27   29       1
    33   29   30       2
    34   29   40       1
    35   30   31       1
    36   31   32      ar
    37   31   38      ar
    38   32   33      ar
    39   33   34       1
    40   33   35      ar
    41   35   36       1
    42   35   37      ar
    43   37   38      ar
    44   38   39       1
    45   39   40       1
    46   39   41       1
    47   41   42       1
    48   42   43       1
    49   42   44       1
    50   44   45       1
    51   44   46       1
    52   46   47       1
    53   46   48       1
    54   48   49       1
    55   49   50       1
    56   50   51      ar
    57   50   52      ar
    58   50   53       1
    59   48   84       1
    60    5   54       1
    61    5   55       1
    62    6   56       1
    63    8   57       1
    64    9   58       1
    65   10   59       1
    66   11   60       1
    67   12   61       1
    68   14   62       1
    69   18   63       1
    70   18   64       1
    71   20   65       1
    72   26   66       1
    73   32   67       1
    74   34   68       1
    75   34   69       1
    76   34   70       1
    77   36   71       1
    78   36   72       1
    79   36   73       1
    80   37   74       1
    81   41   75       1
    82   41   76       1
    83   42   77       1
    84   43   78       1
    85   44   79       1
    86   45   80       1
    87   46   81       1
    88   47   82       1
    89   48   83       1
@<TRIPOS>SUBSTRUCTURE
     1 FAD201      1 GROUP             4 B     FAD     0 **** FAD B 201
