@<TRIPOS>MOLECULE
4hj3_FMN_2_ligand
   50    52     1     0     0
SMALL
NO_CHARGES


@<TRIPOS>ATOM
     1 N1         -40.8300    25.3830    22.6270 N.2          1 FMN201   0.0000
     2 C2         -40.3380    24.1740    23.0690 C.2          1 FMN201   0.0000
     3 O2         -39.2830    24.1160    23.7240 O.2          1 FMN201   0.0000
     4 N3         -41.0190    23.0160    22.7670 N.pl3        1 FMN201   0.0000
     5 C4         -42.1880    23.0560    22.0420 C.2          1 FMN201   0.0000
     6 O4         -42.7900    22.0070    21.7860 O.2          1 FMN201   0.0000
     7 C4A        -42.6960    24.2760    21.6010 C.2          1 FMN201   0.0000
     8 N5         -43.8680    24.3250    20.8590 N.2          1 FMN201   0.0000
     9 C5A        -44.3620    25.5300    20.4200 C.ar         1 FMN201   0.0000
    10 C6         -45.5480    25.5570    19.7060 C.ar         1 FMN201   0.0000
    11 C7         -46.0350    26.7800    19.2680 C.ar         1 FMN201   0.0000
    12 C7M        -47.2990    26.8200    18.4740 C.3          1 FMN201   0.0000
    13 C8         -45.3570    27.9610    19.5440 C.ar         1 FMN201   0.0000
    14 C8M        -45.9190    29.2620    19.0440 C.3          1 FMN201   0.0000
    15 C9         -44.1700    27.9340    20.2710 C.ar         1 FMN201   0.0000
    16 C9A        -43.6710    26.7170    20.7130 C.ar         1 FMN201   0.0000
    17 N10        -42.4990    26.6700    21.4650 N.pl3        1 FMN201   0.0000
    18 C10        -42.0060    25.4460    21.9010 C.2          1 FMN201   0.0000
    19 C1'        -41.7030    27.9090    21.7520 C.3          1 FMN201   0.0000
    20 C2'        -41.8600    28.6050    23.0720 C.3          1 FMN201   0.0000
    21 O2'        -43.2340    28.8480    23.2720 O.3          1 FMN201   0.0000
    22 C3'        -41.0770    29.9060    22.8920 C.3          1 FMN201   0.0000
    23 O3'        -41.6080    30.6190    21.7900 O.3          1 FMN201   0.0000
    24 C4'        -39.5880    29.6690    22.6520 C.3          1 FMN201   0.0000
    25 O4'        -38.9800    29.2090    23.8370 O.3          1 FMN201   0.0000
    26 C5'        -38.8450    30.9210    22.1760 C.3          1 FMN201   0.0000
    27 O5'        -39.1890    32.0680    22.9260 O.3          1 FMN201   0.0000
    28 P          -38.4690    32.5450    24.3120 P.3          1 FMN201   0.0000
    29 O1P        -38.5960    31.4690    25.3580 O.co2        1 FMN201   0.0000
    30 O2P        -36.9980    32.8220    24.1020 O.co2        1 FMN201  -1.0000
    31 O3P        -39.2140    33.7800    24.7590 O.co2        1 FMN201  -1.0000
    32 H1         -40.6601    22.1360    23.0780 H            1 FMN201   0.0000
    33 H2         -46.0440    24.7112    19.5098 H            1 FMN201   0.0000
    34 H7M1       -47.5135    27.7674    18.2364 H            1 FMN201   0.0000
    35 H7M2       -47.1842    26.2843    17.6374 H            1 FMN201   0.0000
    36 H7M3       -48.0457    26.4351    19.0165 H            1 FMN201   0.0000
    37 H8M1       -45.3201    30.0128    19.3226 H            1 FMN201   0.0000
    38 H8M2       -45.9802    29.2371    18.0462 H            1 FMN201   0.0000
    39 H8M3       -46.8306    29.4018    19.4305 H            1 FMN201   0.0000
    40 H9         -43.6819    28.7832    20.4726 H            1 FMN201   0.0000
    41 H1'1       -41.9374    28.5747    21.0436 H            1 FMN201   0.0000
    42 H1'2       -40.7382    27.6595    21.6688 H            1 FMN201   0.0000
    43 H2'        -41.4795    28.0558    23.8161 H            1 FMN201   0.0000
    44 H13        -43.3664    29.3126    24.1476 H            1 FMN201   0.0000
    45 H3'        -41.1848    30.4621    23.7161 H            1 FMN201   0.0000
    46 H15        -41.0992    31.4712    21.6679 H            1 FMN201   0.0000
    47 H4'        -39.4908    28.9606    21.9529 H            1 FMN201   0.0000
    48 H17        -38.6539    29.9902    24.3693 H            1 FMN201   0.0000
    49 H5'1       -39.0729    31.0844    21.2161 H            1 FMN201   0.0000
    50 H5'2       -37.8613    30.7634    22.2629 H            1 FMN201   0.0000
@<TRIPOS>BOND
     1    1    2       1
     2    1   18       2
     3    2    3       2
     4    2    4       1
     5    4    5       1
     6    5    6       2
     7    5    7       1
     8    7    8       2
     9    7   18       1
    10    8    9       1
    11    9   10      ar
    12    9   16      ar
    13   10   11      ar
    14   11   12       1
    15   11   13      ar
    16   13   14       1
    17   13   15      ar
    18   15   16      ar
    19   16   17       1
    20   17   18       1
    21   17   19       1
    22   19   20       1
    23   20   21       1
    24   20   22       1
    25   22   23       1
    26   22   24       1
    27   24   25       1
    28   24   26       1
    29   26   27       1
    30   27   28       1
    31   28   29      ar
    32   28   30      ar
    33   28   31      ar
    34    4   32       1
    35   10   33       1
    36   12   34       1
    37   12   35       1
    38   12   36       1
    39   14   37       1
    40   14   38       1
    41   14   39       1
    42   15   40       1
    43   19   41       1
    44   19   42       1
    45   20   43       1
    46   21   44       1
    47   22   45       1
    48   23   46       1
    49   24   47       1
    50   25   48       1
    51   26   49       1
    52   26   50       1
@<TRIPOS>SUBSTRUCTURE
     1 FMN201      1 GROUP             4 B     FMN     0 **** FMN B 201
