@<TRIPOS>MOLECULE
3asj_XYN_1_ligand
   16    15     1     0     0
SMALL
NO_CHARGES


@<TRIPOS>ATOM
     1 OBA         35.7140   -52.5870   -33.7540 O.co2        1 XYN1000   0.0000
     2 OBB         30.4850   -52.6430   -35.9170 O.3          1 XYN1000   0.0000
     3 OBC         32.9970   -50.7790   -37.5300 O.2          1 XYN1000   0.0000
     4 OBD         35.9750   -51.4790   -35.6620 O.co2        1 XYN1000  -1.0000
     5 OBE         30.8460   -50.4380   -35.7460 O.2          1 XYN1000   0.0000
     6 CBF         34.1550   -52.9700   -35.4740 C.3          1 XYN1000   0.0000
     7 CBG         32.6320   -53.0800   -37.7180 C.3          1 XYN1000   0.0000
     8 SBH         34.3800   -53.2030   -37.2800 S.3          1 XYN1000   0.0000
     9 CBI         35.3810   -52.2810   -34.9120 C.2          1 XYN1000   0.0000
    10 CBJ         31.1070   -51.5850   -36.2090 C.2          1 XYN1000   0.0000
    11 CBK         32.2800   -51.7200   -37.1990 C.2          1 XYN1000   0.0000
    12 HBF1        34.0380   -53.8597   -35.0327 H            1 XYN1000   0.0000
    13 HBF2        33.3465   -52.4059   -35.3064 H            1 XYN1000   0.0000
    14 HBG1        32.0931   -53.7920   -37.2679 H            1 XYN1000   0.0000
    15 HBG2        32.4999   -53.1373   -38.7076 H            1 XYN1000   0.0000
    16 HBB         29.7205   -52.6120   -35.2732 H            1 XYN1000   0.0000
@<TRIPOS>BOND
     1    1    9      ar
     2    2   10       1
     3    3   11       2
     4    4    9      ar
     5    5   10       2
     6    6    8       1
     7    6    9       1
     8    7    8       1
     9    7   11       1
    10   10   11       1
    11    7   15       1
    12    7   14       1
    13    6   12       1
    14    6   13       1
    15    2   16       1
@<TRIPOS>SUBSTRUCTURE
     1 XYN1000     1 GROUP             4 A     XYN     0 **** XYN A1000
