@<TRIPOS>MOLECULE
3bu5_ATP_1_ligand
   43    45     1     0     0
SMALL
NO_CHARGES


@<TRIPOS>ATOM
     1 PG           3.9320    10.1420    25.3880 P.3          1 ATP300   0.0000
     2 O1G          4.6850    10.5610    24.1510 O.co2        1 ATP300   0.0000
     3 O2G          3.4860    11.2960    26.2650 O.co2        1 ATP300  -1.0000
     4 O3G          4.5750     9.0110    26.1510 O.co2        1 ATP300  -1.0000
     5 PB           1.1820     9.2850    25.5770 P.3          1 ATP300   0.0000
     6 O1B          1.3440     8.1150    26.5110 O.co2        1 ATP300   0.0000
     7 O2B          0.6380    10.5860    26.1160 O.co2        1 ATP300  -1.0000
     8 O3B          2.5650     9.5450    24.7830 O.3          1 ATP300   0.0000
     9 PA           0.2070     7.4290    23.5580 P.3          1 ATP300   0.0000
    10 O1A          0.6770     7.5870    22.1260 O.co2        1 ATP300   0.0000
    11 O2A          0.8290     6.3040    24.3610 O.co2        1 ATP300  -1.0000
    12 O3A          0.2700     8.8810    24.2950 O.3          1 ATP300   0.0000
    13 O5'         -1.3990     7.2450    23.5520 O.3          1 ATP300   0.0000
    14 C5'         -2.1370     7.2080    24.7810 C.3          1 ATP300   0.0000
    15 C4'         -3.2550     6.1680    24.7050 C.3          1 ATP300   0.0000
    16 O4'         -4.2600     6.5700    23.7490 O.3          1 ATP300   0.0000
    17 C3'         -2.7450     4.8060    24.2420 C.3          1 ATP300   0.0000
    18 O3'         -2.2540     3.9640    25.3130 O.3          1 ATP300   0.0000
    19 C2'         -3.9350     4.2530    23.4610 C.3          1 ATP300   0.0000
    20 O2'         -4.8850     3.5760    24.3010 O.3          1 ATP300   0.0000
    21 C1'         -4.5770     5.4970    22.8510 C.3          1 ATP300   0.0000
    22 N9          -3.9910     5.7250    21.4880 N.pl3        1 ATP300   0.0000
    23 C8          -2.8340     6.3750    21.2090 C.2          1 ATP300   0.0000
    24 N7          -2.5560     6.3980    19.8790 N.2          1 ATP300   0.0000
    25 C5          -3.5530     5.7370    19.2600 C.ar         1 ATP300   0.0000
    26 C6          -3.8740     5.3950    17.8470 C.ar         1 ATP300   0.0000
    27 N6          -3.0570     5.7820    16.8290 N.pl3        1 ATP300   0.0000
    28 N1          -5.0140     4.6950    17.6280 N.ar         1 ATP300   0.0000
    29 C2          -5.8260     4.3260    18.6400 C.ar         1 ATP300   0.0000
    30 N3          -5.5990     4.5860    19.9430 N.ar         1 ATP300   0.0000
    31 C4          -4.4940     5.2900    20.3160 C.ar         1 ATP300   0.0000
    32 H5'1        -2.5367     8.1086    24.9518 H            1 ATP300   0.0000
    33 H5'2        -1.5176     6.9709    25.5294 H            1 ATP300   0.0000
    34 H4'         -3.6775     6.0724    25.6063 H            1 ATP300   0.0000
    35 H3'         -1.9950     4.9580    23.5982 H            1 ATP300   0.0000
    36 H5          -1.2920     3.7449    25.1504 H            1 ATP300   0.0000
    37 H2'         -3.6170     3.6400    22.7377 H            1 ATP300   0.0000
    38 H7          -4.4370     2.8086    24.7597 H            1 ATP300   0.0000
    39 H1'         -5.5680     5.3798    22.7871 H            1 ATP300   0.0000
    40 H9          -2.2496     6.7916    21.9054 H            1 ATP300   0.0000
    41 H10         -3.2870     5.5442    15.8853 H            1 ATP300   0.0000
    42 H11         -2.2269     6.3041    17.0250 H            1 ATP300   0.0000
    43 H12         -6.6577     3.8224    18.4063 H            1 ATP300   0.0000
@<TRIPOS>BOND
     1    1    2      ar
     2    1    3      ar
     3    1    4      ar
     4    1    8       1
     5    5    6      ar
     6    5    7      ar
     7    5    8       1
     8    5   12       1
     9    9   10      ar
    10    9   11      ar
    11    9   12       1
    12    9   13       1
    13   13   14       1
    14   14   15       1
    15   15   16       1
    16   15   17       1
    17   16   21       1
    18   17   18       1
    19   17   19       1
    20   19   20       1
    21   19   21       1
    22   21   22       1
    23   22   23       1
    24   22   31       1
    25   23   24       2
    26   24   25       1
    27   25   26      ar
    28   25   31      ar
    29   26   27       1
    30   26   28      ar
    31   28   29      ar
    32   29   30      ar
    33   30   31      ar
    34   29   43       1
    35   27   42       1
    36   27   41       1
    37   23   40       1
    38   14   32       1
    39   14   33       1
    40   15   34       1
    41   17   35       1
    42   18   36       1
    43   19   37       1
    44   20   38       1
    45   21   39       1
@<TRIPOS>SUBSTRUCTURE
     1 ATP300      1 GROUP             4 A     ATP     0 **** ATP A 300
