@<TRIPOS>MOLECULE
4cjx_9L9_2_ligand
   48    49     1     0     0
SMALL
NO_CHARGES


@<TRIPOS>ATOM
     1 N2A         21.8060     1.1350    20.8630 N.pl3        1 9L91298   0.0000
     2 N1          23.9610     0.7580    21.8960 N.2          1 9L91298   0.0000
     3 C2          23.1270     1.6260    21.2770 C.2          1 9L91298   0.0000
     4 N3          23.4800     2.9470    21.0080 N.pl3        1 9L91298   0.0000
     5 C4          24.7690     3.2630    21.4590 C.2          1 9L91298   0.0000
     6 O4A         25.0680     4.4200    21.2090 O.2          1 9L91298   0.0000
     7 N5A         26.8440     2.8190    22.6560 N.am         1 9L91298   0.0000
     8 C5          25.6580     2.3830    22.0910 C.2          1 9L91298   0.0000
     9 C6          25.1920     1.1250    22.3110 C.2          1 9L91298   0.0000
    10 N7          26.0470     0.1360    22.9670 N.pl3        1 9L91298   0.0000
    11 O8A         25.9000     4.2110    24.1970 O.2          1 9L91298   0.0000
    12 N9          28.1340     3.9380    24.1540 N.am         1 9L91298   0.0000
    13 C1B         28.4910     4.8020    25.1510 C.ar         1 9L91298   0.0000
    14 C2B         29.8240     4.7450    25.6050 C.ar         1 9L91298   0.0000
    15 C3B         30.2880     5.5690    26.6320 C.ar         1 9L91298   0.0000
    16 C4B         29.4360     6.4860    27.2520 C.ar         1 9L91298   0.0000
    17 C5B         28.1140     6.5810    26.7640 C.ar         1 9L91298   0.0000
    18 C6B         27.6430     5.7480    25.7410 C.ar         1 9L91298   0.0000
    19 C7B         29.9710     7.4250    28.3180 C.2          1 9L91298   0.0000
    20 O7B         29.4380     8.5040    28.4170 O.2          1 9L91298   0.0000
    21 CAW         26.8780     3.6660    23.7120 C.2          1 9L91298   0.0000
    22 N           31.0530     7.1290    29.0710 N.am         1 9L91298   0.0000
    23 CA          31.6830     8.0300    30.0290 C.3          1 9L91298   0.0000
    24 C           32.9510     8.5620    29.4030 C.2          1 9L91298   0.0000
    25 OXT         33.4600     7.8790    28.5020 O.co2        1 9L91298   0.0000
    26 CB          32.1300     7.3750    31.3140 C.3          1 9L91298   0.0000
    27 CG          31.2850     6.1640    31.6550 C.3          1 9L91298   0.0000
    28 CD          31.5150     5.8120    33.0910 C.2          1 9L91298   0.0000
    29 OE1         31.2930     6.6780    33.9370 O.co2        1 9L91298   0.0000
    30 OE2         31.9190     4.6750    33.3730 O.co2        1 9L91298  -1.0000
    31 O           33.4750     9.6320    29.7960 O.co2        1 9L91298  -1.0000
    32 H2A1        21.1655     1.7501    20.4032 H            1 9L91298   0.0000
    33 H2A2        21.5472     0.1856    21.0409 H            1 9L91298   0.0000
    34 H5A         27.7082     2.4964    22.2699 H            1 9L91298   0.0000
    35 H4          26.9612     0.3941    23.2795 H            1 9L91298   0.0000
    36 H5          25.7173    -0.7983    23.1030 H            1 9L91298   0.0000
    37 H6          28.8801     3.4518    23.6991 H            1 9L91298   0.0000
    38 H2B         30.4550     4.0963    25.1797 H            1 9L91298   0.0000
    39 H3B         31.2411     5.5020    26.9271 H            1 9L91298   0.0000
    40 H5B         27.4973     7.2616    27.1596 H            1 9L91298   0.0000
    41 H6B         26.6960     5.8292    25.4301 H            1 9L91298   0.0000
    42 H11         31.4539     6.2193    28.9627 H            1 9L91298   0.0000
    43 HA          31.0649     8.7887    30.2348 H            1 9L91298   0.0000
    44 HB1         32.0576     8.0395    32.0578 H            1 9L91298   0.0000
    45 HB2         33.0826     7.0872    31.2158 H            1 9L91298   0.0000
    46 HG1         31.5482     5.3946    31.0730 H            1 9L91298   0.0000
    47 HG2         30.3184     6.3759    31.5105 H            1 9L91298   0.0000
    48 H17         22.8795     3.5982    20.5440 H            1 9L91298   0.0000
@<TRIPOS>BOND
     1    1    3       1
     2    2    3       2
     3    2    9       1
     4    3    4       1
     5    4    5       1
     6    5    6       2
     7    5    8       1
     8    7    8       1
     9    7   21      am
    10    8    9       2
    11    9   10       1
    12   11   21       2
    13   12   13       1
    14   12   21      am
    15   13   14      ar
    16   13   18      ar
    17   14   15      ar
    18   15   16      ar
    19   16   17      ar
    20   16   19       1
    21   17   18      ar
    22   19   20       2
    23   19   22      am
    24   22   23       1
    25   23   24       1
    26   23   26       1
    27   24   25      ar
    28   24   31      ar
    29   26   27       1
    30   27   28       1
    31   28   29      ar
    32   28   30      ar
    33    1   32       1
    34    1   33       1
    35   27   47       1
    36    7   34       1
    37   10   35       1
    38   10   36       1
    39   12   37       1
    40   14   38       1
    41   15   39       1
    42   17   40       1
    43   18   41       1
    44   22   42       1
    45   23   43       1
    46    4   48       1
    47   26   44       1
    48   26   45       1
    49   27   46       1
@<TRIPOS>SUBSTRUCTURE
     1 9L91298     1 GROUP             4 B     9L9     0 **** 9L9 B1298
