@<TRIPOS>MOLECULE
./coach420/1jcg/ligand.pdb
 31 29 0 0 0
SMALL
GASTEIGER

@<TRIPOS>ATOM
      1 MG         25.9440   10.4320  125.1970 Mg    345  MG345       0.0000
      2  O1G       22.6870    6.7240  122.5980 O.3   346  ANP346      0.0000
      3  O2G       23.7250    8.2810  124.4330 O.3   346  ANP346      0.0000
      4  O3G       22.3750    6.2010  125.1280 O.3   346  ANP346      0.0000
      5  PB        26.1400    6.2730  124.4000 P.3   346  ANP346      0.0000
      6  O1B       26.0040    7.2280  125.5920 O.3   346  ANP346      0.0000
      7  O2B       27.0950    5.2010  124.7080 O.2   346  ANP346      0.0000
      8  N3B       24.6510    5.9070  124.0410 N.3   346  ANP346      0.0000
      9  PA        28.4240    7.8560  122.9740 P.3   346  ANP346      0.0000
     10  O1A       28.2950    9.3770  122.8590 O.2   346  ANP346     -0.5000
     11  O2A       29.4670    7.3890  124.0030 O.3   346  ANP346     -0.5000
     12  O3A       26.9750    7.2020  123.2960 O.3   346  ANP346      0.0000
     13  O5'       28.6860    7.1910  121.5000 O.3   346  ANP346      0.0000
     14  C5'       29.0100    5.8050  121.6180 C.3   346  ANP346      0.0000
     15  C4'       29.0240    5.2010  120.2040 C.3   346  ANP346      0.0000
     16  O4'       29.9110    6.0190  119.4150 O.3   346  ANP346      0.0000
     17  C3'       29.6730    3.8360  120.0610 C.3   346  ANP346      0.0000
     18  O3'       28.8730    3.1440  119.0990 O.3   346  ANP346      0.0000
     19  C2'       31.0520    4.1130  119.3590 C.3   346  ANP346      0.0000
     20  O2'       31.4670    3.1630  118.3920 O.3   346  ANP346      0.0000
     21  C1'       30.9000    5.3830  118.6170 C.3   346  ANP346      0.0000
     22  N9        32.1940    6.1450  118.2500 N.ar  346  ANP346      0.0000
     23  C8        33.2590    6.3740  119.0790 C.ar  346  ANP346      0.0000
     24  N7        34.2570    7.0120  118.4300 N.ar  346  ANP346      0.0000
     25  C5        33.8200    7.1850  117.1630 C.ar  346  ANP346      0.0000
     26  C6        34.5210    7.8080  116.0350 C.ar  346  ANP346      0.0000
     27  N6        35.8000    8.3120  116.2240 N.pl3 346  ANP346      0.0000
     28  N1        33.8640    7.8820  114.7750 N.ar  346  ANP346      0.0000
     29  C2        32.5770    7.3620  114.7160 C.ar  346  ANP346      0.0000
     30  N3        31.9220    6.7720  115.7690 N.ar  346  ANP346      0.0000
     31  C4        32.5110    6.6570  117.0240 C.ar  346  ANP346      0.0000
@<TRIPOS>BOND
     1     5    12    1
     2     5     8    1
     3     5     7    2
     4     5     6    1
     5     9    13    1
     6     9    10    2
     7     9    12    1
     8     9    11    1
     9    13    14    1
    10    14    15    1
    11    15    16    1
    12    15    17    1
    13    16    21    1
    14    17    18    1
    15    17    19    1
    16    19    20    1
    17    19    21    1
    18    21    22    1
    19    22    31   ar
    20    22    23   ar
    21    23    24   ar
    22    24    25   ar
    23    25    26   ar
    24    25    31   ar
    25    26    28   ar
    26    26    27    1
    27    28    29   ar
    28    29    30   ar
    29    30    31   ar
