@<TRIPOS>MOLECULE
3k30_ADP_3_ligand
   39    41     1     0     0
SMALL
NO_CHARGES


@<TRIPOS>ATOM
     1 PB          20.2030    -3.8640    46.3280 P.3          1 ADP803   0.0000
     2 O1B         19.8650    -4.7620    45.1900 O.co2        1 ADP803   0.0000
     3 O2B         21.2280    -2.8290    46.0600 O.co2        1 ADP803  -1.0000
     4 O3B         19.0400    -3.2720    47.0610 O.co2        1 ADP803  -1.0000
     5 PA          21.4180    -4.3890    48.8710 P.3          1 ADP803   0.0000
     6 O1A         22.6830    -5.1300    49.1090 O.co2        1 ADP803   0.0000
     7 O2A         21.4700    -2.9330    49.0900 O.co2        1 ADP803  -1.0000
     8 O3A         20.8310    -4.8540    47.4320 O.3          1 ADP803   0.0000
     9 O5'         20.3980    -5.0060    49.9400 O.3          1 ADP803   0.0000
    10 C5'         20.1010    -6.3940    49.9270 C.3          1 ADP803   0.0000
    11 C4'         19.4190    -6.6880    51.2340 C.3          1 ADP803   0.0000
    12 O4'         18.8820    -8.0110    51.2050 O.3          1 ADP803   0.0000
    13 C3'         20.3680    -6.6100    52.4310 C.3          1 ADP803   0.0000
    14 O3'         19.7880    -5.6440    53.3220 O.3          1 ADP803   0.0000
    15 C2'         20.3800    -8.0240    53.0240 C.3          1 ADP803   0.0000
    16 O2'         20.2940    -8.0840    54.4520 O.3          1 ADP803   0.0000
    17 C1'         19.0730    -8.5840    52.4970 C.3          1 ADP803   0.0000
    18 N9          19.1050   -10.0340    52.3930 N.pl3        1 ADP803   0.0000
    19 C8          20.0520   -10.7760    51.8330 C.2          1 ADP803   0.0000
    20 N7          19.7390   -12.0810    51.9130 N.2          1 ADP803   0.0000
    21 C5          18.5680   -12.1690    52.5460 C.ar         1 ADP803   0.0000
    22 C6          17.6600   -13.2540    52.9750 C.ar         1 ADP803   0.0000
    23 N6          17.9760   -14.5290    52.7010 N.pl3        1 ADP803   0.0000
    24 N1          16.5210   -12.9390    53.6060 N.ar         1 ADP803   0.0000
    25 C2          16.2200   -11.6680    53.8690 C.ar         1 ADP803   0.0000
    26 N3          16.9940   -10.6240    53.5170 N.ar         1 ADP803   0.0000
    27 C4          18.1590   -10.8120    52.8600 C.ar         1 ADP803   0.0000
    28 H5'1        20.9427    -6.9281    49.8471 H            1 ADP803   0.0000
    29 H5'2        19.4943    -6.6117    49.1625 H            1 ADP803   0.0000
    30 H4'         18.6726    -6.0358    51.3664 H            1 ADP803   0.0000
    31 H3'         21.2851    -6.3315    52.1457 H            1 ADP803   0.0000
    32 H5          18.8772    -5.9504    53.5986 H            1 ADP803   0.0000
    33 H2'         21.1605    -8.5504    52.6868 H            1 ADP803   0.0000
    34 H7          19.4422    -7.6552    54.7529 H            1 ADP803   0.0000
    35 H1'         18.3239    -8.3083    53.0993 H            1 ADP803   0.0000
    36 H9          20.8831   -10.4146    51.4102 H            1 ADP803   0.0000
    37 H10         17.3665   -15.2680    52.9881 H            1 ADP803   0.0000
    38 H11         18.8210   -14.7402    52.2097 H            1 ADP803   0.0000
    39 H12         15.3681   -11.4780    54.3571 H            1 ADP803   0.0000
@<TRIPOS>BOND
     1    1    2      ar
     2    1    3      ar
     3    1    4      ar
     4    1    8       1
     5    5    6      ar
     6    5    7      ar
     7    5    8       1
     8    5    9       1
     9    9   10       1
    10   10   11       1
    11   11   12       1
    12   11   13       1
    13   12   17       1
    14   13   14       1
    15   13   15       1
    16   15   16       1
    17   15   17       1
    18   17   18       1
    19   18   19       1
    20   18   27       1
    21   19   20       2
    22   20   21       1
    23   21   22      ar
    24   21   27      ar
    25   22   23       1
    26   22   24      ar
    27   24   25      ar
    28   25   26      ar
    29   26   27      ar
    30   25   39       1
    31   23   38       1
    32   23   37       1
    33   10   28       1
    34   10   29       1
    35   11   30       1
    36   13   31       1
    37   14   32       1
    38   15   33       1
    39   16   34       1
    40   17   35       1
    41   19   36       1
@<TRIPOS>SUBSTRUCTURE
     1 ADP803      1 GROUP             4 B     ADP     0 **** ADP B 803
