@<TRIPOS>MOLECULE
1boo_SAH_1_ligand
   46    48     1     0     0
SMALL
NO_CHARGES


@<TRIPOS>ATOM
     1 N           -7.0780    40.7260    46.6270 N.4          1 SAH401   1.0000
     2 CA          -7.5040    39.3970    46.3670 C.3          1 SAH401   0.0000
     3 CB          -7.9290    39.1960    44.9080 C.3          1 SAH401   0.0000
     4 CG          -9.4280    39.3810    44.6830 C.3          1 SAH401   0.0000
     5 SD          -9.8250    39.4170    42.9000 S.3          1 SAH401   0.0000
     6 C           -6.4590    38.3660    46.7370 C.2          1 SAH401   0.0000
     7 O           -5.2100    38.7010    46.7670 O.co2        1 SAH401   0.0000
     8 OXT         -6.7340    37.1890    46.2750 O.co2        1 SAH401  -1.0000
     9 C5'        -11.6150    39.8320    42.9730 C.3          1 SAH401   0.0000
    10 C4'        -12.3190    38.8070    43.6550 C.3          1 SAH401   0.0000
    11 O4'        -13.7190    39.2130    43.7530 O.3          1 SAH401   0.0000
    12 C3'        -12.4890    37.5660    42.7810 C.3          1 SAH401   0.0000
    13 O3'        -12.0530    36.3200    43.4490 O.3          1 SAH401   0.0000
    14 C2'        -14.1070    37.4550    42.6120 C.3          1 SAH401   0.0000
    15 O2'        -14.5450    36.0770    42.5080 O.3          1 SAH401   0.0000
    16 C1'        -14.6380    38.0690    43.8670 C.3          1 SAH401   0.0000
    17 N9         -16.0240    38.5560    43.6550 N.pl3        1 SAH401   0.0000
    18 C8         -16.6290    39.0950    42.4980 C.2          1 SAH401   0.0000
    19 N7         -17.8560    39.6300    42.7300 N.2          1 SAH401   0.0000
    20 C5         -18.0540    39.4220    44.0460 C.ar         1 SAH401   0.0000
    21 C6         -19.0800    39.7680    44.7750 C.ar         1 SAH401   0.0000
    22 N6         -20.1050    40.4550    44.2810 N.pl3        1 SAH401   0.0000
    23 N1         -19.0270    39.4710    46.0660 N.ar         1 SAH401   0.0000
    24 C2         -17.9260    38.8330    46.5710 C.ar         1 SAH401   0.0000
    25 N3         -16.8130    38.4200    45.9620 N.ar         1 SAH401   0.0000
    26 C4         -16.9890    38.7790    44.6500 C.ar         1 SAH401   0.0000
    27 H1          -7.6603    41.1308    47.3321 H            1 SAH401   0.0000
    28 H2          -6.1294    40.7161    46.9433 H            1 SAH401   0.0000
    29 HA          -8.3071    39.2248    46.9374 H            1 SAH401   0.0000
    30 HB1         -7.6786    38.2688    44.6296 H            1 SAH401   0.0000
    31 HB2         -7.4391    39.8581    44.3409 H            1 SAH401   0.0000
    32 HG1         -9.7170    40.2430    45.0995 H            1 SAH401   0.0000
    33 HG2         -9.9188    38.6225    45.1118 H            1 SAH401   0.0000
    34 H5'1       -11.9736    39.9191    42.0436 H            1 SAH401   0.0000
    35 H5'2       -11.7355    40.6975    43.4593 H            1 SAH401   0.0000
    36 H4'        -11.9185    38.5954    44.5465 H            1 SAH401   0.0000
    37 H3'        -12.0382    37.6805    41.8957 H            1 SAH401   0.0000
    38 H12        -12.5920    36.1810    44.2797 H            1 SAH401   0.0000
    39 H2'        -14.4098    37.9770    41.8146 H            1 SAH401   0.0000
    40 H14        -14.7408    35.7196    43.4212 H            1 SAH401   0.0000
    41 H1'        -14.5123    37.5133    44.6888 H            1 SAH401   0.0000
    42 H16        -16.1965    39.0839    41.5964 H            1 SAH401   0.0000
    43 H17        -20.8731    40.7014    44.8720 H            1 SAH401   0.0000
    44 H18        -20.1081    40.7255    43.3183 H            1 SAH401   0.0000
    45 H19        -17.9616    38.6468    47.5529 H            1 SAH401   0.0000
    46 H20         -7.1443    41.2673    45.7888 H            1 SAH401   0.0000
@<TRIPOS>BOND
     1    1    2       1
     2    2    3       1
     3    2    6       1
     4    3    4       1
     5    4    5       1
     6    5    9       1
     7    6    7      ar
     8    6    8      ar
     9    9   10       1
    10   10   11       1
    11   10   12       1
    12   11   16       1
    13   12   13       1
    14   12   14       1
    15   14   15       1
    16   14   16       1
    17   16   17       1
    18   17   18       1
    19   17   26       1
    20   18   19       2
    21   19   20       1
    22   20   21      ar
    23   20   26      ar
    24   21   22       1
    25   21   23      ar
    26   23   24      ar
    27   24   25      ar
    28   25   26      ar
    29    1   27       1
    30    1   28       1
    31    2   29       1
    32    3   30       1
    33    3   31       1
    34    4   32       1
    35    4   33       1
    36    1   46       1
    37    9   34       1
    38    9   35       1
    39   10   36       1
    40   12   37       1
    41   13   38       1
    42   14   39       1
    43   15   40       1
    44   16   41       1
    45   18   42       1
    46   22   43       1
    47   22   44       1
    48   24   45       1
@<TRIPOS>SUBSTRUCTURE
     1 SAH401      1 GROUP             4 A     SAH     0 **** SAH A 401
