@<TRIPOS>MOLECULE
./coach420/2j4e/ligand.pdb
 31 33 0 0 0
SMALL
GASTEIGER

@<TRIPOS>ATOM
      1  PG        44.3190    6.1900  -10.0010 P.3   1001  ITT1001     0.5373
      2  O1G       44.0440    4.8780  -10.8930 O.2   1001  ITT1001    -0.2221
      3  O2G       43.7730    5.8190   -8.5330 O.3   1001  ITT1001    -0.1143
      4  O3G       43.6350    7.3740  -10.5660 O.3   1001  ITT1001    -0.1143
      5  PB        46.6070    7.8040  -10.1450 P.3   1001  ITT1001     0.2277
      6  O1B       46.3520    8.0550  -11.7150 O.2   1001  ITT1001    -0.5168
      7  O2B       48.0500    7.7600   -9.8160 O.3   1001  ITT1001    -0.4368
      8  O3B       45.9090    6.3850   -9.8410 O.3   1001  ITT1001    -0.2258
      9  PA        45.3120   10.3580   -9.8660 P.3   1001  ITT1001     0.2189
     10  O1A       44.5190   11.0310   -8.6360 O.3   1001  ITT1001    -0.4371
     11  O2A       44.5280   10.2520  -11.1160 O.2   1001  ITT1001    -0.5170
     12  O3A       45.7970    8.9220   -9.3150 O.3   1001  ITT1001    -0.2700
     13  O5'       46.6300   11.2380  -10.1520 O.3   1001  ITT1001    -0.3112
     14  C5'       47.0260   12.3180   -9.3030 C.3   1001  ITT1001     0.1813
     15  C4'       48.5490   12.3990   -9.1760 C.3   1001  ITT1001     0.1801
     16  O4'       48.8780   13.0370   -7.9330 O.3   1001  ITT1001    -0.3306
     17  C3'       49.2490   11.0390   -9.1520 C.3   1001  ITT1001     0.2161
     18  O3'       50.5690   11.2120   -9.6740 O.3   1001  ITT1001    -0.2175
     19  C2'       49.3220   10.6950   -7.6630 C.3   1001  ITT1001     0.2337
     20  O2'       50.5150    9.9410   -7.4330 O.3   1001  ITT1001    -0.2155
     21  C1'       49.3900   12.0720   -7.0000 C.3   1001  ITT1001     0.2409
     22  N9        48.6040   12.1520   -5.7480 N.ar  1001  ITT1001    -0.2693
     23  C8        47.3450   11.7820   -5.5260 C.ar  1001  ITT1001     0.1817
     24  N7        47.0000   12.0110   -4.2620 N.ar  1001  ITT1001    -0.2173
     25  C5        48.0670   12.5360   -3.6670 C.ar  1001  ITT1001     0.1747
     26  C6        48.2850   12.9650   -2.3630 C.ar  1001  ITT1001     0.3014
     27  O6        47.4260   12.9080   -1.4860 O.2   1001  ITT1001    -0.2634
     28  N1        49.5430   13.4870   -2.0400 N.ar  1001  ITT1001    -0.1841
     29  C2        50.5360   13.5530   -3.0260 C.ar  1001  ITT1001     0.2031
     30  N3        50.2800   13.1300   -4.2490 N.ar  1001  ITT1001    -0.2047
     31  C4        49.0890   12.6280   -4.6040 C.ar  1001  ITT1001     0.1711
@<TRIPOS>BOND
     1     1     2    2
     2     1     4    1
     3     1     8    1
     4     1     3    1
     5     5     6    2
     6     5     8    1
     7     5     7    1
     8     5    12    1
     9     9    11    2
    10     9    13    1
    11     9    12    1
    12     9    10    1
    13    13    14    1
    14    14    15    1
    15    15    17    1
    16    15    16    1
    17    16    21    1
    18    17    18    1
    19    17    19    1
    20    19    20    1
    21    19    21    1
    22    21    22    1
    23    22    23   ar
    24    22    31   ar
    25    23    24   ar
    26    24    25   ar
    27    25    31   ar
    28    25    26   ar
    29    26    28   ar
    30    26    27    2
    31    28    29   ar
    32    29    30   ar
    33    30    31   ar
