@<TRIPOS>MOLECULE
4rwt_ANP_1_ligand
   44    46     1     0     0
SMALL
NO_CHARGES


@<TRIPOS>ATOM
     1 PG         -19.7610   -31.3770   -44.1050 P.3          1 ANP401   0.0000
     2 O1G        -19.2600   -32.2410   -45.2390 O.co2        1 ANP401   0.0000
     3 O2G        -20.4630   -30.1010   -44.5340 O.co2        1 ANP401  -1.0000
     4 O3G        -20.5320   -32.1590   -43.0620 O.co2        1 ANP401  -1.0000
     5 PB         -18.4830   -29.8270   -41.8840 P.3          1 ANP401   0.0000
     6 O1B        -19.9580   -29.5680   -41.7020 O.co2        1 ANP401   0.0000
     7 O2B        -17.7640   -30.5230   -40.7450 O.co2        1 ANP401  -1.0000
     8 N3B        -18.3120   -30.8250   -43.3060 N.3          1 ANP401   0.0000
     9 PA         -18.2420   -26.9250   -42.1490 P.3          1 ANP401   0.0000
    10 O1A        -18.7860   -26.5690   -43.5030 O.co2        1 ANP401   0.0000
    11 O2A        -19.1150   -26.7150   -40.9370 O.co2        1 ANP401  -1.0000
    12 O3A        -17.6720   -28.4480   -42.1690 O.3          1 ANP401   0.0000
    13 O5'        -16.9150   -26.0210   -41.9570 O.3          1 ANP401   0.0000
    14 C5'        -15.6890   -26.2720   -42.6640 C.3          1 ANP401   0.0000
    15 C4'        -15.2510   -25.0580   -43.4930 C.3          1 ANP401   0.0000
    16 O4'        -15.8720   -23.8680   -43.0000 O.3          1 ANP401   0.0000
    17 C3'        -13.7340   -24.8120   -43.4900 C.3          1 ANP401   0.0000
    18 O3'        -13.1530   -24.8230   -44.8120 O.3          1 ANP401   0.0000
    19 C2'        -13.5850   -23.4350   -42.8780 C.3          1 ANP401   0.0000
    20 O2'        -12.4990   -22.7350   -43.4970 O.3          1 ANP401   0.0000
    21 C1'        -14.9410   -22.8050   -43.1730 C.3          1 ANP401   0.0000
    22 N9         -15.3080   -21.6210   -42.3430 N.pl3        1 ANP401   0.0000
    23 C8         -15.6020   -21.6040   -41.0200 C.2          1 ANP401   0.0000
    24 N7         -15.9070   -20.3480   -40.5950 N.2          1 ANP401   0.0000
    25 C5         -15.8180   -19.5340   -41.6700 C.ar         1 ANP401   0.0000
    26 C6         -16.0040   -18.0940   -41.9260 C.ar         1 ANP401   0.0000
    27 N6         -16.3610   -17.2660   -40.9230 N.pl3        1 ANP401   0.0000
    28 N1         -15.8150   -17.6330   -43.1880 N.ar         1 ANP401   0.0000
    29 C2         -15.4580   -18.4550   -44.1940 C.ar         1 ANP401   0.0000
    30 N3         -15.2630   -19.7780   -44.0420 N.ar         1 ANP401   0.0000
    31 C4         -15.4290   -20.3650   -42.8180 C.ar         1 ANP401   0.0000
    32 H3B        -17.7861   -30.3000   -43.9752 H            1 ANP401   0.0000
    33 H5'1       -15.8222   -27.0512   -43.2764 H            1 ANP401   0.0000
    34 H5'2       -14.9716   -26.4875   -42.0015 H            1 ANP401   0.0000
    35 H4'        -15.5456   -25.1989   -44.4382 H            1 ANP401   0.0000
    36 H3'        -13.2803   -25.4915   -42.9134 H            1 ANP401   0.0000
    37 H6         -12.4637   -25.5454   -44.8672 H            1 ANP401   0.0000
    38 H2'        -13.4390   -23.5048   -41.8912 H            1 ANP401   0.0000
    39 H8         -12.0913   -22.1027   -42.8382 H            1 ANP401   0.0000
    40 H1'        -14.9556   -22.5298   -44.1343 H            1 ANP401   0.0000
    41 H10        -15.5956   -22.4121   -40.4310 H            1 ANP401   0.0000
    42 H11        -16.4861   -16.2899   -41.1009 H            1 ANP401   0.0000
    43 H12        -16.5006   -17.6281   -40.0014 H            1 ANP401   0.0000
    44 H13        -15.3309   -18.0603   -45.1040 H            1 ANP401   0.0000
@<TRIPOS>BOND
     1    1    2      ar
     2    1    3      ar
     3    1    4      ar
     4    1    8       1
     5    5    6      ar
     6    5    7      ar
     7    5    8       1
     8    5   12       1
     9    9   10      ar
    10    9   11      ar
    11    9   12       1
    12    9   13       1
    13   13   14       1
    14   14   15       1
    15   15   16       1
    16   15   17       1
    17   16   21       1
    18   17   18       1
    19   17   19       1
    20   19   20       1
    21   19   21       1
    22   21   22       1
    23   22   23       1
    24   22   31       1
    25   23   24       2
    26   24   25       1
    27   25   26      ar
    28   25   31      ar
    29   26   27       1
    30   26   28      ar
    31   28   29      ar
    32   29   30      ar
    33   30   31      ar
    34   29   44       1
    35   27   43       1
    36   27   42       1
    37    8   32       1
    38   23   41       1
    39   14   33       1
    40   14   34       1
    41   15   35       1
    42   17   36       1
    43   18   37       1
    44   19   38       1
    45   20   39       1
    46   21   40       1
@<TRIPOS>SUBSTRUCTURE
     1 ANP401      1 GROUP             4 A     ANP     0 **** ANP A 401
