@<TRIPOS>MOLECULE
4yr9_NAD_2_ligand
   70    74     1     0     0
SMALL
NO_CHARGES


@<TRIPOS>ATOM
     1 PA         -17.2410   -25.9090    99.8230 P.3          1 NAD1001   0.0000
     2 O1A        -18.4110   -25.0290    99.4500 O.co2        1 NAD1001   0.0000
     3 O2A        -15.8180   -25.4990    99.5350 O.co2        1 NAD1001  -1.0000
     4 O5B        -17.3810   -26.1800   101.4010 O.3          1 NAD1001   0.0000
     5 C5B        -16.5420   -27.1100   102.0890 C.3          1 NAD1001   0.0000
     6 C4B        -16.9780   -27.1490   103.5470 C.3          1 NAD1001   0.0000
     7 O4B        -16.0840   -27.9510   104.3260 O.3          1 NAD1001   0.0000
     8 C3B        -16.9820   -25.7500   104.1560 C.3          1 NAD1001   0.0000
     9 O3B        -18.2880   -25.4660   104.6700 O.3          1 NAD1001   0.0000
    10 C2B        -15.9700   -25.8090   105.2760 C.3          1 NAD1001   0.0000
    11 O2B        -16.4280   -25.0610   106.4030 O.3          1 NAD1001   0.0000
    12 C1B        -15.8940   -27.2980   105.5820 C.3          1 NAD1001   0.0000
    13 N9A        -14.6110   -27.6890   106.2230 N.pl3        1 NAD1001   0.0000
    14 C8A        -13.3850   -27.1950   105.9580 C.2          1 NAD1001   0.0000
    15 N7A        -12.4410   -27.7790   106.7380 N.2          1 NAD1001   0.0000
    16 C5A        -13.0680   -28.6710   107.5280 C.ar         1 NAD1001   0.0000
    17 C6A        -12.6760   -29.6330   108.5900 C.ar         1 NAD1001   0.0000
    18 N6A        -11.3840   -29.7650   108.9750 N.pl3        1 NAD1001   0.0000
    19 N1A        -13.6510   -30.3780   109.1610 N.ar         1 NAD1001   0.0000
    20 C2A        -14.9450   -30.2720   108.7950 C.ar         1 NAD1001   0.0000
    21 N3A        -15.3700   -29.4190   107.8450 N.ar         1 NAD1001   0.0000
    22 C4A        -14.4990   -28.6060   107.1860 C.ar         1 NAD1001   0.0000
    23 O3         -17.4450   -27.3800    99.1970 O.3          1 NAD1001   0.0000
    24 PN         -18.5210   -27.7000    98.0460 P.3          1 NAD1001   0.0000
    25 O1N        -18.2910   -26.7290    96.9100 O.co2        1 NAD1001   0.0000
    26 O2N        -19.8900   -27.8430    98.6630 O.co2        1 NAD1001  -1.0000
    27 O5D        -18.0440   -29.1480    97.5500 O.3          1 NAD1001   0.0000
    28 C5D        -18.0790   -30.2990    98.3910 C.3          1 NAD1001   0.0000
    29 C4D        -17.2230   -31.3870    97.7510 C.3          1 NAD1001   0.0000
    30 O4D        -17.4970   -31.4760    96.3440 O.3          1 NAD1001   0.0000
    31 C3D        -15.7400   -31.0790    97.8920 C.3          1 NAD1001   0.0000
    32 O3D        -15.0490   -32.2870    98.2280 O.3          1 NAD1001   0.0000
    33 C2D        -15.3070   -30.5990    96.5220 C.3          1 NAD1001   0.0000
    34 O2D        -13.9550   -30.9690    96.2460 O.3          1 NAD1001   0.0000
    35 C1D        -16.2830   -31.3150    95.5940 C.3          1 NAD1001   0.0000
    36 N1N        -16.4880   -30.6010    94.3240 N.ar         1 NAD1001   1.0000
    37 C2N        -17.2110   -29.4600    94.2530 C.ar         1 NAD1001   0.0000
    38 C3N        -17.3900   -28.8020    93.0270 C.ar         1 NAD1001   0.0000
    39 C7N        -18.1900   -27.5280    92.9240 C.2          1 NAD1001   0.0000
    40 O7N        -19.1719   -27.3604    93.6328 O.2          1 NAD1001   0.0000
    41 N7N        -17.8168   -26.5914    92.0555 N.am         1 NAD1001   0.0000
    42 C4N        -16.8130   -29.3470    91.8800 C.ar         1 NAD1001   0.0000
    43 C5N        -16.0710   -30.5200    91.9790 C.ar         1 NAD1001   0.0000
    44 C6N        -15.9280   -31.1300    93.2220 C.ar         1 NAD1001   0.0000
    45 H5B1       -15.5882   -26.8159   102.0279 H            1 NAD1001   0.0000
    46 H5B2       -16.6374   -28.0184   101.6820 H            1 NAD1001   0.0000
    47 H4B        -17.8990   -27.5344   103.6040 H            1 NAD1001   0.0000
    48 H3B        -16.7150   -25.0681   103.4750 H            1 NAD1001   0.0000
    49 H5         -18.5237   -26.1387   105.3714 H            1 NAD1001   0.0000
    50 H2B        -15.0825   -25.4685   104.9657 H            1 NAD1001   0.0000
    51 H7         -16.9567   -25.6578   107.0066 H            1 NAD1001   0.0000
    52 H1B        -16.6482   -27.5423   106.1915 H            1 NAD1001   0.0000
    53 H8A        -13.1959   -26.4895   105.2750 H            1 NAD1001   0.0000
    54 H6A1       -11.1401   -30.4182   109.6918 H            1 NAD1001   0.0000
    55 H6A2       -10.6741   -29.2092   108.5424 H            1 NAD1001   0.0000
    56 H2A        -15.6190   -30.8537   109.2503 H            1 NAD1001   0.0000
    57 H5D1       -19.0211   -30.6211    98.4840 H            1 NAD1001   0.0000
    58 H5D2       -17.7146   -30.0694    99.2935 H            1 NAD1001   0.0000
    59 H4D        -17.4228   -32.2655    98.1849 H            1 NAD1001   0.0000
    60 H3D        -15.5851   -30.3738    98.5838 H            1 NAD1001   0.0000
    61 H17        -14.5884   -32.1737    99.1084 H            1 NAD1001   0.0000
    62 H2D        -15.4192   -29.6080    96.4483 H            1 NAD1001   0.0000
    63 H19        -13.6981   -30.6395    95.3375 H            1 NAD1001   0.0000
    64 H1D        -15.9158   -32.2225    95.3898 H            1 NAD1001   0.0000
    65 H2N        -17.6219   -29.0818    95.0825 H            1 NAD1001   0.0000
    66 H7N1       -18.3409   -25.7432    91.9788 H            1 NAD1001   0.0000
    67 H7N2       -17.0122   -26.7358    91.4795 H            1 NAD1001   0.0000
    68 H4N        -16.9316   -28.8986    90.9941 H            1 NAD1001   0.0000
    69 H5N        -15.6457   -30.9199    91.1671 H            1 NAD1001   0.0000
    70 H6N        -15.3999   -31.9759    93.2966 H            1 NAD1001   0.0000
@<TRIPOS>BOND
     1    1    2      ar
     2    1    3      ar
     3    1    4       1
     4    1   23       1
     5    4    5       1
     6    5    6       1
     7    6    7       1
     8    6    8       1
     9    7   12       1
    10    8    9       1
    11    8   10       1
    12   10   11       1
    13   10   12       1
    14   12   13       1
    15   13   14       1
    16   13   22       1
    17   14   15       2
    18   15   16       1
    19   16   17      ar
    20   16   22      ar
    21   17   18       1
    22   17   19      ar
    23   19   20      ar
    24   20   21      ar
    25   21   22      ar
    26   23   24       1
    27   24   25      ar
    28   24   26      ar
    29   24   27       1
    30   27   28       1
    31   28   29       1
    32   29   30       1
    33   29   31       1
    34   30   35       1
    35   31   32       1
    36   31   33       1
    37   33   34       1
    38   33   35       1
    39   35   36       1
    40   36   37      ar
    41   36   44      ar
    42   37   38      ar
    43   38   39       1
    44   38   42      ar
    45   39   40       2
    46   39   41      am
    47   42   43      ar
    48   43   44      ar
    49   44   70       1
    50    5   45       1
    51    5   46       1
    52    6   47       1
    53    8   48       1
    54    9   49       1
    55   10   50       1
    56   11   51       1
    57   12   52       1
    58   14   53       1
    59   18   54       1
    60   18   55       1
    61   20   56       1
    62   43   69       1
    63   28   57       1
    64   28   58       1
    65   29   59       1
    66   31   60       1
    67   32   61       1
    68   33   62       1
    69   34   63       1
    70   35   64       1
    71   37   65       1
    72   41   66       1
    73   41   67       1
    74   42   68       1
@<TRIPOS>SUBSTRUCTURE
     1 NAD1001     1 GROUP             4 B     NAD     0 **** NAD B1001
