@<TRIPOS>MOLECULE
1v9o_ADP_1_ligand
   39    41     1     0     0
SMALL
NO_CHARGES


@<TRIPOS>ATOM
     1 PB           1.3950     5.1760    -6.0990 P.3          1 ADP200   0.0000
     2 O1B          1.0330     4.2640    -4.9910 O.co2        1 ADP200   0.0000
     3 O2B          1.8800     4.3930    -7.4200 O.co2        1 ADP200  -1.0000
     4 O3B          0.1630     6.1060    -6.5600 O.co2        1 ADP200  -1.0000
     5 PA           2.7570     7.5840    -6.4810 P.3          1 ADP200   0.0000
     6 O1A          2.3390     7.3820    -7.8870 O.co2        1 ADP200   0.0000
     7 O2A          2.0620     8.6210    -5.6860 O.co2        1 ADP200  -1.0000
     8 O3A          2.5990     6.1760    -5.7180 O.3          1 ADP200   0.0000
     9 O5'          4.3440     7.8550    -6.4440 O.3          1 ADP200   0.0000
    10 C5'          4.8820     8.6760    -5.4050 C.3          1 ADP200   0.0000
    11 C4'          5.9060     9.6790    -5.9410 C.3          1 ADP200   0.0000
    12 O4'          5.4110    10.4490    -7.0530 O.3          1 ADP200   0.0000
    13 C3'          6.2300    10.6760    -4.8280 C.3          1 ADP200   0.0000
    14 O3'          7.3600    10.1890    -4.0990 O.3          1 ADP200   0.0000
    15 C2'          6.6360    11.8940    -5.6550 C.3          1 ADP200   0.0000
    16 O2'          7.9350    11.6950    -6.2200 O.3          1 ADP200   0.0000
    17 C1'          5.5730    11.8480    -6.7550 C.3          1 ADP200   0.0000
    18 N9           4.2650    12.3860    -6.3090 N.pl3        1 ADP200   0.0000
    19 C8           3.2190    11.6700    -5.9020 C.2          1 ADP200   0.0000
    20 N7           2.1870    12.4740    -5.6570 N.2          1 ADP200   0.0000
    21 C5           2.5780    13.7210    -5.9050 C.ar         1 ADP200   0.0000
    22 C6           1.9630    14.9650    -5.8350 C.ar         1 ADP200   0.0000
    23 N6           0.6900    15.0710    -5.4640 N.pl3        1 ADP200   0.0000
    24 N1           2.6670    16.0610    -6.1590 N.ar         1 ADP200   0.0000
    25 C2           3.9290    15.9740    -6.5450 C.ar         1 ADP200   0.0000
    26 N3           4.5420    14.8050    -6.6260 N.ar         1 ADP200   0.0000
    27 C4           3.9030    13.6670    -6.3170 C.ar         1 ADP200   0.0000
    28 H5'1         5.3275     8.0900    -4.7281 H            1 ADP200   0.0000
    29 H5'2         4.1345     9.1784    -4.9705 H            1 ADP200   0.0000
    30 H4'          6.7388     9.1960    -6.2116 H            1 ADP200   0.0000
    31 H3'          5.4439    10.8592    -4.2377 H            1 ADP200   0.0000
    32 H5           8.1417    10.1000    -4.7162 H            1 ADP200   0.0000
    33 H2'          6.5861    12.7394    -5.1232 H            1 ADP200   0.0000
    34 H7           8.3929    12.5781    -6.3221 H            1 ADP200   0.0000
    35 H1'          5.8916    12.3400    -7.5652 H            1 ADP200   0.0000
    36 H9           3.2100    10.6757    -5.7961 H            1 ADP200   0.0000
    37 H10          0.2563    15.9708    -5.4167 H            1 ADP200   0.0000
    38 H11          0.1667    14.2509    -5.2324 H            1 ADP200   0.0000
    39 H12          4.4289    16.8076    -6.7800 H            1 ADP200   0.0000
@<TRIPOS>BOND
     1    1    2      ar
     2    1    3      ar
     3    1    4      ar
     4    1    8       1
     5    5    6      ar
     6    5    7      ar
     7    5    8       1
     8    5    9       1
     9    9   10       1
    10   10   11       1
    11   11   12       1
    12   11   13       1
    13   12   17       1
    14   13   14       1
    15   13   15       1
    16   15   16       1
    17   15   17       1
    18   17   18       1
    19   18   19       1
    20   18   27       1
    21   19   20       2
    22   20   21       1
    23   21   22      ar
    24   21   27      ar
    25   22   23       1
    26   22   24      ar
    27   24   25      ar
    28   25   26      ar
    29   26   27      ar
    30   25   39       1
    31   23   38       1
    32   23   37       1
    33   10   28       1
    34   10   29       1
    35   11   30       1
    36   13   31       1
    37   14   32       1
    38   15   33       1
    39   16   34       1
    40   17   35       1
    41   19   36       1
@<TRIPOS>SUBSTRUCTURE
     1 ADP200      1 GROUP             4 A     ADP     0 **** ADP A 200
