@<TRIPOS>MOLECULE
./coach420/1kaq/ligand.pdb
 44 48 0 0 0
SMALL
GASTEIGER

@<TRIPOS>ATOM
      1  PN        21.5580   56.3280   94.4290 P.3   601  DND601      0.2189
      2  O11       20.1500   56.2610   94.9190 O.3   601  DND601     -0.4371
      3  O12       21.5970   56.9370   92.9570 O.2   601  DND601     -0.5170
      4  O3P       22.1450   54.9390   94.4280 O.3   601  DND601     -0.2703
      5  O5D       22.4100   57.3210   95.3200 O.3   601  DND601     -0.3112
      6  C5D       23.7410   56.9960   95.7380 C.3   601  DND601      0.1813
      7  C4D       23.9890   57.4400   97.2070 C.3   601  DND601      0.1799
      8  O4D       24.6570   58.6980   97.2600 O.3   601  DND601     -0.3327
      9  C3D       22.7380   57.6080   98.0420 C.3   601  DND601      0.2158
     10  O3D       22.3980   56.4450   98.7480 O.3   601  DND601     -0.2175
     11  C2D       23.1110   58.6720   99.0520 C.3   601  DND601      0.2309
     12  O2D       23.6850   58.0430  100.1590 O.3   601  DND601     -0.2158
     13  C1D       24.1940   59.4850   98.3500 C.3   601  DND601      0.2263
     14  N1N       23.7640   60.8160   97.7990 N.pl3 601  DND601     -0.2787
     15  C6N       23.2090   60.9920   96.5380 C.3   601  DND601      0.1195
     16  C5N       22.8190   62.2460   96.0580 C.2   601  DND601     -0.0044
     17  C4N       22.9740   63.3640   96.8940 C.2   601  DND601      0.0050
     18  C3N       23.5260   63.2170   98.1930 C.2   601  DND601      0.0940
     19  C2N       23.9030   61.9320   98.5940 C.2   601  DND601      0.0699
     20  C7N       23.7080   64.3760   99.0990 C.2   601  DND601      0.3890
     21  O7N       24.0310   64.0770  100.3810 O.co2 601  DND601     -0.2405
     22  O8N       23.5900   65.5010   98.7070 O.co2 601  DND601     -0.2405
     23  PA        21.6340   53.5910   93.8670 P.3   601  DND601      0.2189
     24  O13       20.3150   53.1760   94.4950 O.3   601  DND601     -0.4371
     25  O14       21.5310   53.6710   92.2600 O.2   601  DND601     -0.5170
     26  O5B       22.7830   52.5790   94.1950 O.3   601  DND601     -0.3112
     27  C5B       23.9870   53.0960   94.7930 C.3   601  DND601      0.1813
     28  C4B       25.2610   52.4840   94.1520 C.3   601  DND601      0.1801
     29  O4B       24.9370   51.7440   93.0100 O.3   601  DND601     -0.3306
     30  C3B       26.3330   53.5150   93.6760 C.3   601  DND601      0.2161
     31  O3B       25.9730   54.8630   93.8860 O.3   601  DND601     -0.2175
     32  C2B       26.4140   53.2980   92.1580 C.3   601  DND601      0.2337
     33  O2B       26.4540   54.5450   91.4840 O.3   601  DND601     -0.2155
     34  C1B       25.1470   52.5020   91.8530 C.3   601  DND601      0.2409
     35  N9A       25.1260   51.6510   90.6590 N.ar  601  DND601     -0.2693
     36  C4A       26.1950   51.0950   89.9910 C.ar  601  DND601      0.1692
     37  N3A       27.5190   51.1770   90.2290 N.ar  601  DND601     -0.2048
     38  C2A       28.3430   50.5160   89.3710 C.ar  601  DND601      0.2016
     39  N1A       27.9150   49.7800   88.3020 N.ar  601  DND601     -0.2040
     40  C6A       26.5680   49.7130   88.1040 C.ar  601  DND601      0.1919
     41  C5A       25.6650   50.3520   88.9070 C.ar  601  DND601      0.1518
     42  N7A       24.3060   50.4610   88.9170 N.ar  601  DND601     -0.2193
     43  C8A       24.0440   51.2380   89.9760 C.ar  601  DND601      0.1816
     44  N6A       26.1250   48.9850   87.0600 N.pl3 601  DND601     -0.1054
@<TRIPOS>BOND
     1     1     3    2
     2     1     4    1
     3     1     2    1
     4     1     5    1
     5     4    23    1
     6     5     6    1
     7     6     7    1
     8     7     8    1
     9     7     9    1
    10     8    13    1
    11     9    10    1
    12     9    11    1
    13    11    13    1
    14    11    12    1
    15    13    14    1
    16    14    15    1
    17    14    19    1
    18    15    16    1
    19    16    17    2
    20    17    18    1
    21    18    19    2
    22    18    20    1
    23    20    22   ar
    24    20    21   ar
    25    23    25    2
    26    23    26    1
    27    23    24    1
    28    26    27    1
    29    27    28    1
    30    28    29    1
    31    28    30    1
    32    29    34    1
    33    30    32    1
    34    30    31    1
    35    32    33    1
    36    32    34    1
    37    34    35    1
    38    35    43   ar
    39    35    36   ar
    40    36    41   ar
    41    36    37   ar
    42    37    38   ar
    43    38    39   ar
    44    39    40   ar
    45    40    44    1
    46    40    41   ar
    47    41    42   ar
    48    42    43   ar
