@<TRIPOS>MOLECULE
5ahk_FAD_4_ligand
   84    89     1     0     0
SMALL
NO_CHARGES


@<TRIPOS>ATOM
     1 PA         -13.0990   -77.8110    -0.4270 P.3          1 FAD701   0.0000
     2 O1A        -12.6690   -76.9590     0.7210 O.co2        1 FAD701   0.0000
     3 O2A        -13.1280   -79.3150    -0.2320 O.co2        1 FAD701  -1.0000
     4 O5B        -12.2800   -77.5830    -1.7940 O.3          1 FAD701   0.0000
     5 C5B        -11.7890   -76.2330    -1.9470 C.3          1 FAD701   0.0000
     6 C4B        -11.3430   -76.0740    -3.3740 C.3          1 FAD701   0.0000
     7 O4B        -11.0610   -74.6770    -3.6250 O.3          1 FAD701   0.0000
     8 C3B        -10.0580   -76.8150    -3.7190 C.3          1 FAD701   0.0000
     9 O3B        -10.0610   -77.0990    -5.1090 O.3          1 FAD701   0.0000
    10 C2B         -8.9870   -75.7880    -3.3380 C.3          1 FAD701   0.0000
    11 O2B         -7.7530   -75.8900    -4.0330 O.3          1 FAD701   0.0000
    12 C1B         -9.6620   -74.4820    -3.7340 C.3          1 FAD701   0.0000
    13 N9A         -9.2710   -73.3570    -2.8970 N.pl3        1 FAD701   0.0000
    14 C8A         -9.0920   -73.3130    -1.5400 C.2          1 FAD701   0.0000
    15 N7A         -8.7150   -72.1420    -1.0880 N.2          1 FAD701   0.0000
    16 C5A         -8.6430   -71.3570    -2.2290 C.ar         1 FAD701   0.0000
    17 C6A         -8.2760   -70.0110    -2.4340 C.ar         1 FAD701   0.0000
    18 N6A         -7.8650   -69.1960    -1.4500 N.pl3        1 FAD701   0.0000
    19 N1A         -8.2870   -69.5400    -3.7060 N.ar         1 FAD701   0.0000
    20 C2A         -8.6160   -70.3810    -4.6960 C.ar         1 FAD701   0.0000
    21 N3A         -8.9610   -71.6750    -4.6200 N.ar         1 FAD701   0.0000
    22 C4A         -8.9730   -72.0950    -3.3520 C.ar         1 FAD701   0.0000
    23 N1         -21.0110   -81.9480    -0.4680 N.2          1 FAD701   0.0000
    24 C2         -21.9200   -81.4190    -1.3730 C.2          1 FAD701   0.0000
    25 O2         -21.6700   -80.3830    -1.9570 O.2          1 FAD701   0.0000
    26 N3         -23.1140   -82.0600    -1.5900 N.pl3        1 FAD701   0.0000
    27 C4         -23.5360   -83.2230    -0.9640 C.2          1 FAD701   0.0000
    28 O4         -24.6160   -83.7300    -1.2560 O.2          1 FAD701   0.0000
    29 C4X        -22.5850   -83.7630     0.0090 C.2          1 FAD701   0.0000
    30 N5         -22.9320   -84.8440     0.6940 N.2          1 FAD701   0.0000
    31 C5X        -22.0440   -85.2980     1.6790 C.ar         1 FAD701   0.0000
    32 C6         -22.4330   -86.3690     2.4940 C.ar         1 FAD701   0.0000
    33 C7         -21.6460   -86.7850     3.5660 C.ar         1 FAD701   0.0000
    34 C7M        -22.1550   -87.8600     4.4950 C.3          1 FAD701   0.0000
    35 C8         -20.4200   -86.1520     3.8070 C.ar         1 FAD701   0.0000
    36 C8M        -19.5230   -86.6110     4.9270 C.3          1 FAD701   0.0000
    37 C9         -20.0140   -85.1010     2.9850 C.ar         1 FAD701   0.0000
    38 C9A        -20.8110   -84.6610     1.9250 C.ar         1 FAD701   0.0000
    39 N10        -20.4610   -83.5410     1.1160 N.pl3        1 FAD701   0.0000
    40 C10        -21.3410   -83.0640     0.1790 C.2          1 FAD701   0.0000
    41 C1'        -19.1820   -82.8310     1.2550 C.3          1 FAD701   0.0000
    42 C2'        -18.1270   -83.2660     0.2420 C.3          1 FAD701   0.0000
    43 O2'        -17.5940   -84.5510     0.5810 O.3          1 FAD701   0.0000
    44 C3'        -16.9940   -82.2440     0.1680 C.3          1 FAD701   0.0000
    45 O3'        -16.4380   -82.0570     1.4750 O.3          1 FAD701   0.0000
    46 C4'        -17.4420   -80.8850    -0.3720 C.3          1 FAD701   0.0000
    47 O4'        -18.4380   -81.0330    -1.3900 O.3          1 FAD701   0.0000
    48 C5'        -16.2630   -80.1280    -0.9290 C.3          1 FAD701   0.0000
    49 O5'        -16.6360   -78.7440    -1.0190 O.3          1 FAD701   0.0000
    50 P          -15.6410   -77.8330    -1.8500 P.3          1 FAD701   0.0000
    51 O1P        -14.9890   -78.5010    -2.9790 O.co2        1 FAD701   0.0000
    52 O2P        -16.4270   -76.5950    -2.1340 O.co2        1 FAD701  -1.0000
    53 O3P        -14.5740   -77.3020    -0.7940 O.3          1 FAD701   0.0000
    54 H5B1       -11.0183   -76.0778    -1.3290 H            1 FAD701   0.0000
    55 H5B2       -12.5175   -75.5793    -1.7420 H            1 FAD701   0.0000
    56 H4B        -12.0741   -76.3784    -3.9846 H            1 FAD701   0.0000
    57 H3B         -9.9661   -77.6514    -3.1787 H            1 FAD701   0.0000
    58 H5         -10.1101   -76.2432    -5.6240 H            1 FAD701   0.0000
    59 H2B         -8.8281   -75.8072    -2.3509 H            1 FAD701   0.0000
    60 H7          -7.9122   -75.7749    -5.0135 H            1 FAD701   0.0000
    61 H1B         -9.4355   -74.2740    -4.6855 H            1 FAD701   0.0000
    62 H8A         -9.2362   -74.1046    -0.9463 H            1 FAD701   0.0000
    63 H6A1        -7.6173   -68.2492    -1.6556 H            1 FAD701   0.0000
    64 H6A2        -7.8065   -69.5355    -0.5112 H            1 FAD701   0.0000
    65 H2A         -8.6025   -69.9909    -5.6167 H            1 FAD701   0.0000
    66 H13        -23.7350   -81.6519    -2.2592 H            1 FAD701   0.0000
    67 H14        -23.2919   -86.8440     2.3028 H            1 FAD701   0.0000
    68 H7M1       -21.4728   -88.0382     5.2041 H            1 FAD701   0.0000
    69 H7M2       -23.0072   -87.5563     4.9211 H            1 FAD701   0.0000
    70 H7M3       -22.3223   -88.6978     3.9753 H            1 FAD701   0.0000
    71 H8M1       -18.6983   -86.0458     4.9465 H            1 FAD701   0.0000
    72 H8M2       -20.0067   -86.5250     5.7980 H            1 FAD701   0.0000
    73 H8M3       -19.2686   -87.5669     4.7799 H            1 FAD701   0.0000
    74 H21        -19.1362   -84.6540     3.1574 H            1 FAD701   0.0000
    75 H1'1       -18.8257   -82.9990     2.1741 H            1 FAD701   0.0000
    76 H1'2       -19.3494   -81.8523     1.1362 H            1 FAD701   0.0000
    77 H2'        -18.5578   -83.3283    -0.6583 H            1 FAD701   0.0000
    78 H25        -18.2928   -85.0875     1.0541 H            1 FAD701   0.0000
    79 H3'        -16.2800   -82.6044    -0.4322 H            1 FAD701   0.0000
    80 H27        -15.4700   -81.8194     1.3946 H            1 FAD701   0.0000
    81 H4'        -17.8328   -80.3561     0.3814 H            1 FAD701   0.0000
    82 H29        -19.2349   -81.5032    -1.0108 H            1 FAD701   0.0000
    83 H5'1       -16.0314   -80.4781    -1.8366 H            1 FAD701   0.0000
    84 H5'2       -15.4752   -80.2296    -0.3216 H            1 FAD701   0.0000
@<TRIPOS>BOND
     1    1    2      ar
     2    1    3      ar
     3    1    4       1
     4    1   53       1
     5    4    5       1
     6    5    6       1
     7    6    7       1
     8    6    8       1
     9    7   12       1
    10    8    9       1
    11    8   10       1
    12   10   11       1
    13   10   12       1
    14   12   13       1
    15   13   14       1
    16   13   22       1
    17   14   15       2
    18   15   16       1
    19   16   17      ar
    20   16   22      ar
    21   17   18       1
    22   17   19      ar
    23   19   20      ar
    24   20   21      ar
    25   21   22      ar
    26   23   24       1
    27   23   40       2
    28   24   25       2
    29   24   26       1
    30   26   27       1
    31   27   28       2
    32   27   29       1
    33   29   30       2
    34   29   40       1
    35   30   31       1
    36   31   32      ar
    37   31   38      ar
    38   32   33      ar
    39   33   34       1
    40   33   35      ar
    41   35   36       1
    42   35   37      ar
    43   37   38      ar
    44   38   39       1
    45   39   40       1
    46   39   41       1
    47   41   42       1
    48   42   43       1
    49   42   44       1
    50   44   45       1
    51   44   46       1
    52   46   47       1
    53   46   48       1
    54   48   49       1
    55   49   50       1
    56   50   51      ar
    57   50   52      ar
    58   50   53       1
    59   48   84       1
    60    5   54       1
    61    5   55       1
    62    6   56       1
    63    8   57       1
    64    9   58       1
    65   10   59       1
    66   11   60       1
    67   12   61       1
    68   14   62       1
    69   18   63       1
    70   18   64       1
    71   20   65       1
    72   26   66       1
    73   32   67       1
    74   34   68       1
    75   34   69       1
    76   34   70       1
    77   36   71       1
    78   36   72       1
    79   36   73       1
    80   37   74       1
    81   41   75       1
    82   41   76       1
    83   42   77       1
    84   43   78       1
    85   44   79       1
    86   45   80       1
    87   46   81       1
    88   47   82       1
    89   48   83       1
@<TRIPOS>SUBSTRUCTURE
     1 FAD701      1 GROUP             4 B     FAD     0 **** FAD B 701
