@<TRIPOS>MOLECULE
3uzz_ASD_2_ligand
   47    50     1     0     0
SMALL
NO_CHARGES


@<TRIPOS>ATOM
     1 C1           2.2930    18.9240   -32.8870 C.3          1 ASD501   0.0000
     2 C10          3.5460    19.6320   -33.4310 C.3          1 ASD501   0.0000
     3 C11          3.8920    17.8200   -35.2190 C.3          1 ASD501   0.0000
     4 C12          4.7460    16.6600   -35.7430 C.3          1 ASD501   0.0000
     5 C13          6.1580    17.1400   -36.0010 C.3          1 ASD501   0.0000
     6 C14          6.7400    17.7880   -34.7430 C.3          1 ASD501   0.0000
     7 C15          8.2270    17.9280   -35.0470 C.3          1 ASD501   0.0000
     8 C16          8.5390    16.6240   -35.8140 C.3          1 ASD501   0.0000
     9 C17          7.2090    16.0940   -36.2970 C.2          1 ASD501   0.0000
    10 C18          6.1960    18.0580   -37.2320 C.3          1 ASD501   0.0000
    11 C19          3.1380    20.6590   -34.5080 C.3          1 ASD501   0.0000
    12 C2           1.4420    19.7850   -31.9520 C.3          1 ASD501   0.0000
    13 C3           2.2270    20.5440   -30.9140 C.2          1 ASD501   0.0000
    14 C4           3.6260    20.7800   -31.2050 C.2          1 ASD501   0.0000
    15 C5           4.2490    20.3870   -32.3100 C.2          1 ASD501   0.0000
    16 C6           5.6690    20.7930   -32.5600 C.3          1 ASD501   0.0000
    17 C7           6.5290    19.6180   -33.0130 C.3          1 ASD501   0.0000
    18 C8           5.9480    18.9910   -34.2690 C.3          1 ASD501   0.0000
    19 C9           4.4980    18.5290   -33.9980 C.3          1 ASD501   0.0000
    20 O1           1.6840    21.1000   -29.9590 O.2          1 ASD501   0.0000
    21 O2           7.0270    15.0270   -36.8480 O.2          1 ASD501   0.0000
    22 H1           2.5858    18.1106   -32.3844 H            1 ASD501   0.0000
    23 H2           1.7258    18.6497   -33.6636 H            1 ASD501   0.0000
    24 H3           2.9946    17.4610   -34.9627 H            1 ASD501   0.0000
    25 H4           3.7855    18.4906   -35.9531 H            1 ASD501   0.0000
    26 H5           4.3515    16.3154   -36.5948 H            1 ASD501   0.0000
    27 H6           4.7634    15.9268   -35.0632 H            1 ASD501   0.0000
    28 H7           6.6672    17.1033   -34.0178 H            1 ASD501   0.0000
    29 H8           8.7633    17.9887   -34.2052 H            1 ASD501   0.0000
    30 H9           8.4052    18.7319   -35.6144 H            1 ASD501   0.0000
    31 H10          8.9773    15.9608   -35.2073 H            1 ASD501   0.0000
    32 H11          9.1399    16.8134   -36.5906 H            1 ASD501   0.0000
    33 H12          7.1342    18.3663   -37.3891 H            1 ASD501   0.0000
    34 H13          5.8719    17.5549   -38.0332 H            1 ASD501   0.0000
    35 H14          5.6066    18.8504   -37.0752 H            1 ASD501   0.0000
    36 H15          3.9550    21.1166   -34.8587 H            1 ASD501   0.0000
    37 H16          2.6717    20.1888   -35.2573 H            1 ASD501   0.0000
    38 H17          2.5228    21.3371   -34.1059 H            1 ASD501   0.0000
    39 H18          0.7953    19.1868   -31.4788 H            1 ASD501   0.0000
    40 H19          0.9387    20.4463   -32.5082 H            1 ASD501   0.0000
    41 H20          4.1631    21.2760   -30.5227 H            1 ASD501   0.0000
    42 H21          6.0516    21.1659   -31.7147 H            1 ASD501   0.0000
    43 H22          5.6832    21.4962   -33.2709 H            1 ASD501   0.0000
    44 H23          6.5595    18.9321   -32.2859 H            1 ASD501   0.0000
    45 H24          7.4554    19.9421   -33.2046 H            1 ASD501   0.0000
    46 H25          5.9372    19.6770   -34.9965 H            1 ASD501   0.0000
    47 H26          4.5634    17.8324   -33.2835 H            1 ASD501   0.0000
@<TRIPOS>BOND
     1    1    2       1
     2    1   12       1
     3    2   11       1
     4    2   15       1
     5    2   19       1
     6    3    4       1
     7    3   19       1
     8    4    5       1
     9    5    6       1
    10    5    9       1
    11    5   10       1
    12    6    7       1
    13    6   18       1
    14    7    8       1
    15    8    9       1
    16    9   21       2
    17   12   13       1
    18   13   14       1
    19   13   20       2
    20   14   15       2
    21   15   16       1
    22   16   17       1
    23   17   18       1
    24   18   19       1
    25    1   22       1
    26    1   23       1
    27    3   24       1
    28    3   25       1
    29    4   26       1
    30    4   27       1
    31    6   28       1
    32    7   29       1
    33    7   30       1
    34    8   31       1
    35    8   32       1
    36   10   33       1
    37   10   34       1
    38   10   35       1
    39   11   36       1
    40   11   37       1
    41   11   38       1
    42   12   39       1
    43   12   40       1
    44   14   41       1
    45   16   42       1
    46   16   43       1
    47   17   44       1
    48   17   45       1
    49   18   46       1
    50   19   47       1
@<TRIPOS>SUBSTRUCTURE
     1 ASD501      1 GROUP             4 B     ASD     0 **** ASD B 501
