@<TRIPOS>MOLECULE
4i8z_G08_1_ligand
   77    80     1     0     0
SMALL
NO_CHARGES


@<TRIPOS>ATOM
     1 O22        -17.2240     0.5750    -2.6400 O.2          1 G08101   0.0000
     2 C21        -18.2990     1.0550    -2.9940 C.2          1 G08101   0.0000
     3 O23        -18.6020     1.0790    -4.3500 O.3          1 G08101   0.0000
     4 C24        -17.6440     0.9740    -5.3270 C.3          1 G08101   0.0000
     5 C31        -17.3790     2.3080    -5.9130 C.3          1 G08101   0.0000
     6 C30        -17.4080     3.5630    -5.1090 C.3          1 G08101   0.0000
     7 C29        -18.9560     3.8420    -5.1140 C.3          1 G08101   0.0000
     8 O28        -19.2760     3.5360    -6.4770 O.3          1 G08101   0.0000
     9 C27        -18.4740     2.4590    -6.8530 C.3          1 G08101   0.0000
    10 O26        -19.0890     1.2120    -6.9970 O.3          1 G08101   0.0000
    11 C25        -18.2230     0.2170    -6.4880 C.3          1 G08101   0.0000
    12 N20        -19.3720     1.2320    -2.1370 N.am         1 G08101   0.0000
    13 C19        -19.1480     1.2430    -0.7080 C.3          1 G08101   0.0000
    14 C32        -19.4460     2.6330    -0.1550 C.3          1 G08101   0.0000
    15 C38        -18.4730     3.6290    -0.7850 C.ar         1 G08101   0.0000
    16 C37        -18.9050     4.6210    -1.6990 C.ar         1 G08101   0.0000
    17 C36        -17.9990     5.5120    -2.2620 C.ar         1 G08101   0.0000
    18 C35        -16.6610     5.4140    -1.9370 C.ar         1 G08101   0.0000
    19 C34        -16.2080     4.4590    -1.0340 C.ar         1 G08101   0.0000
    20 C33        -17.1180     3.5640    -0.4560 C.ar         1 G08101   0.0000
    21 C17        -20.1150     0.2160    -0.1090 C.3          1 G08101   0.0000
    22 O18        -21.3940     0.6420    -0.4130 O.3          1 G08101   0.0000
    23 C16        -19.8950    -0.1690     1.3600 C.3          1 G08101   0.0000
    24 N11        -18.5710    -0.8420     1.4390 N.3          1 G08101   0.0000
    25 C12        -18.5810    -2.2980     1.7250 C.3          1 G08101   0.0000
    26 C13        -18.8960    -3.0900     0.4450 C.3          1 G08101   0.0000
    27 C15        -19.2360    -4.5130     0.8770 C.3          1 G08101   0.0000
    28 C14        -17.6620    -3.1830    -0.3960 C.3          1 G08101   0.0000
    29 S8         -17.4060    -0.0590     2.3700 S.o2         1 G08101   0.0000
    30 O9         -17.5300     1.3790     2.2000 O.2          1 G08101   0.0000
    31 O10        -16.1320    -0.5190     1.9030 O.2          1 G08101   0.0000
    32 C5         -17.5900    -0.4480     4.1070 C.ar         1 G08101   0.0000
    33 C4         -16.7650    -1.4600     4.5850 C.ar         1 G08101   0.0000
    34 C3         -16.8460    -1.8720     5.9090 C.ar         1 G08101   0.0000
    35 C6         -18.5970     0.2030     4.8240 C.ar         1 G08101   0.0000
    36 C7         -18.6580    -0.2240     6.1750 C.ar         1 G08101   0.0000
    37 C2         -17.8040    -1.2440     6.6880 C.ar         1 G08101   0.0000
    38 C1         -17.8740    -1.6870     8.1280 C.2          1 G08101   0.0000
    39 O1         -18.8800    -1.4640     8.7190 O.2          1 G08101   0.0000
    40 N1         -16.8060    -2.3630     8.8090 N.am         1 G08101   0.0000
    41 H1         -16.8080     0.5459    -4.9836 H            1 G08101   0.0000
    42 H2         -16.5194     2.2713    -6.4226 H            1 G08101   0.0000
    43 H3         -16.8951     4.2998    -5.5496 H            1 G08101   0.0000
    44 H4         -17.0580     3.4206    -4.1831 H            1 G08101   0.0000
    45 H5         -19.1593     4.7958    -4.8929 H            1 G08101   0.0000
    46 H6         -19.4408     3.2417    -4.4779 H            1 G08101   0.0000
    47 H7         -18.0700     2.6900    -7.7381 H            1 G08101   0.0000
    48 H8         -18.7219    -0.5977    -6.1922 H            1 G08101   0.0000
    49 H9         -17.5219    -0.0441    -7.1516 H            1 G08101   0.0000
    50 H10        -20.2949     1.3513    -2.5032 H            1 G08101   0.0000
    51 H11        -18.2031     0.9863    -0.5050 H            1 G08101   0.0000
    52 H12        -19.3306     2.6320     0.8383 H            1 G08101   0.0000
    53 H13        -20.3853     2.8910    -0.3812 H            1 G08101   0.0000
    54 H14        -19.8732     4.6810    -1.9421 H            1 G08101   0.0000
    55 H15        -18.3136     6.2177    -2.8968 H            1 G08101   0.0000
    56 H16        -16.0060     6.0411    -2.3586 H            1 G08101   0.0000
    57 H17        -15.2374     4.4110    -0.7981 H            1 G08101   0.0000
    58 H18        -16.7956     2.8763     0.1945 H            1 G08101   0.0000
    59 H19        -19.9772    -0.6243    -0.6332 H            1 G08101   0.0000
    60 H20        -21.9035     0.7975     0.4333 H            1 G08101   0.0000
    61 H21        -20.6158    -0.7922     1.6634 H            1 G08101   0.0000
    62 H22        -19.8989     0.6498     1.9340 H            1 G08101   0.0000
    63 H23        -19.2782    -2.4942     2.4145 H            1 G08101   0.0000
    64 H24        -17.6837    -2.5726     2.0707 H            1 G08101   0.0000
    65 H25        -19.6508    -2.6745    -0.0625 H            1 G08101   0.0000
    66 H26        -19.4483    -5.0645     0.0703 H            1 G08101   0.0000
    67 H27        -18.4543    -4.9114     1.3568 H            1 G08101   0.0000
    68 H28        -20.0282    -4.4959     1.4870 H            1 G08101   0.0000
    69 H29        -17.8644    -3.6977    -1.2291 H            1 G08101   0.0000
    70 H30        -17.3541    -2.2631    -0.6390 H            1 G08101   0.0000
    71 H31        -16.9427    -3.6503     0.1181 H            1 G08101   0.0000
    72 H32        -16.1074    -1.8951     3.9700 H            1 G08101   0.0000
    73 H33        -16.2466    -2.5818     6.2790 H            1 G08101   0.0000
    74 H34        -19.2054     0.8916     4.4295 H            1 G08101   0.0000
    75 H35        -19.3218     0.2044     6.7880 H            1 G08101   0.0000
    76 H36        -16.9141    -2.6314     9.7662 H            1 G08101   0.0000
    77 H37        -15.9540    -2.5654     8.3261 H            1 G08101   0.0000
@<TRIPOS>BOND
     1    1    2       2
     2    2    3       1
     3    2   12      am
     4    3    4       1
     5    4    5       1
     6    4   11       1
     7    5    6       1
     8    5    9       1
     9    6    7       1
    10    7    8       1
    11    8    9       1
    12    9   10       1
    13   10   11       1
    14   12   13       1
    15   13   14       1
    16   13   21       1
    17   14   15       1
    18   15   16      ar
    19   15   20      ar
    20   16   17      ar
    21   17   18      ar
    22   18   19      ar
    23   19   20      ar
    24   21   22       1
    25   21   23       1
    26   23   24       1
    27   24   25       1
    28   24   29       1
    29   25   26       1
    30   26   27       1
    31   26   28       1
    32   29   30       2
    33   29   31       2
    34   29   32       1
    35   32   33      ar
    36   32   35      ar
    37   33   34      ar
    38   34   37      ar
    39   35   36      ar
    40   36   37      ar
    41   37   38       1
    42   38   39       2
    43   38   40      am
    44    4   41       1
    45    5   42       1
    46    6   43       1
    47    6   44       1
    48    7   45       1
    49    7   46       1
    50    9   47       1
    51   11   48       1
    52   11   49       1
    53   12   50       1
    54   13   51       1
    55   14   52       1
    56   14   53       1
    57   16   54       1
    58   17   55       1
    59   18   56       1
    60   19   57       1
    61   20   58       1
    62   21   59       1
    63   22   60       1
    64   23   61       1
    65   23   62       1
    66   25   63       1
    67   25   64       1
    68   26   65       1
    69   27   66       1
    70   27   67       1
    71   27   68       1
    72   28   69       1
    73   28   70       1
    74   28   71       1
    75   33   72       1
    76   34   73       1
    77   35   74       1
    78   36   75       1
    79   40   76       1
    80   40   77       1
@<TRIPOS>SUBSTRUCTURE
     1 G08101      1 GROUP             4 A     G08     0 **** G08 A 101
