@<TRIPOS>MOLECULE
2pa3_NAI_1_ligand
   71    75     1     0     0
SMALL
NO_CHARGES


@<TRIPOS>ATOM
     1 PA          54.0560   -64.9240   -33.7660 P.3          1 NAI450   0.0000
     2 O1A         54.3670   -65.1330   -32.3140 O.co2        1 NAI450   0.0000
     3 O2A         52.5960   -64.7090   -34.0700 O.co2        1 NAI450  -1.0000
     4 O5B         54.6770   -66.1830   -34.5180 O.3          1 NAI450   0.0000
     5 C5B         55.9950   -66.5850   -34.1850 C.3          1 NAI450   0.0000
     6 C4B         56.0090   -68.0080   -34.7560 C.3          1 NAI450   0.0000
     7 O4B         57.2900   -68.5970   -34.7250 O.3          1 NAI450   0.0000
     8 C3B         55.0850   -68.9420   -33.9850 C.3          1 NAI450   0.0000
     9 O3B         54.1980   -69.4880   -34.9390 O.3          1 NAI450   0.0000
    10 C2B         56.0280   -69.9680   -33.3490 C.3          1 NAI450   0.0000
    11 O2B         55.5040   -71.2740   -33.2850 O.3          1 NAI450   0.0000
    12 C1B         57.1620   -69.9530   -34.3370 C.3          1 NAI450   0.0000
    13 N9A         58.4800   -70.2270   -33.8100 N.pl3        1 NAI450   0.0000
    14 C8A         59.0180   -69.8010   -32.6340 C.2          1 NAI450   0.0000
    15 N7A         60.3150   -70.2350   -32.6270 N.2          1 NAI450   0.0000
    16 C5A         60.6070   -70.8780   -33.7810 C.ar         1 NAI450   0.0000
    17 C6A         61.7580   -71.5020   -34.2890 C.ar         1 NAI450   0.0000
    18 N6A         62.8430   -71.6750   -33.5360 N.pl3        1 NAI450   0.0000
    19 N1A         61.7220   -72.0960   -35.5460 N.ar         1 NAI450   0.0000
    20 C2A         60.5470   -72.0630   -36.2770 C.ar         1 NAI450   0.0000
    21 N3A         59.4170   -71.4380   -35.7670 N.ar         1 NAI450   0.0000
    22 C4A         59.4440   -70.8680   -34.5380 C.ar         1 NAI450   0.0000
    23 O3          55.0170   -63.7160   -34.2980 O.3          1 NAI450   0.0000
    24 PN          54.4350   -62.5600   -35.2640 P.3          1 NAI450   0.0000
    25 O1N         53.5780   -61.5440   -34.5610 O.co2        1 NAI450   0.0000
    26 O2N         53.8190   -63.3590   -36.3700 O.co2        1 NAI450  -1.0000
    27 O5D         55.8360   -61.8350   -35.6460 O.3          1 NAI450   0.0000
    28 C5D         56.9530   -62.6460   -35.8830 C.3          1 NAI450   0.0000
    29 C4D         58.2110   -61.8360   -35.6120 C.3          1 NAI450   0.0000
    30 O4D         58.2530   -60.6660   -36.4120 O.3          1 NAI450   0.0000
    31 C3D         58.2620   -61.3590   -34.1630 C.3          1 NAI450   0.0000
    32 O3D         59.5900   -61.5470   -33.7020 O.3          1 NAI450   0.0000
    33 C2D         57.9880   -59.8690   -34.2460 C.3          1 NAI450   0.0000
    34 O2D         58.6560   -59.2040   -33.2090 O.3          1 NAI450   0.0000
    35 C1D         58.6280   -59.5630   -35.5920 C.3          1 NAI450   0.0000
    36 N1N         58.2170   -58.2400   -36.0960 N.pl3        1 NAI450   0.0000
    37 C2N         59.1070   -57.4580   -36.7950 C.2          1 NAI450   0.0000
    38 C3N         58.6710   -56.1880   -37.2350 C.2          1 NAI450   0.0000
    39 C7N         59.5370   -55.3130   -38.0780 C.2          1 NAI450   0.0000
    40 O7N         59.3350   -53.9310   -37.9160 O.2          1 NAI450   0.0000
    41 N7N         60.4120   -55.8340   -38.9630 N.am         1 NAI450   0.0000
    42 C4N         57.3840   -55.7080   -36.9940 C.3          1 NAI450   0.0000
    43 C5N         56.4960   -56.5270   -36.3020 C.2          1 NAI450   0.0000
    44 C6N         56.9400   -57.7810   -35.8450 C.2          1 NAI450   0.0000
    45 H5B1        56.1423   -66.5831   -33.1959 H            1 NAI450   0.0000
    46 H5B2        56.6799   -66.0043   -34.6251 H            1 NAI450   0.0000
    47 H4B         55.7004   -67.9709   -35.7065 H            1 NAI450   0.0000
    48 H3B         54.5821   -68.4402   -33.2813 H            1 NAI450   0.0000
    49 H5          54.5868   -70.3305   -35.3118 H            1 NAI450   0.0000
    50 H2B         56.3348   -69.6613   -32.4480 H            1 NAI450   0.0000
    51 H7          55.7466   -71.7717   -34.1177 H            1 NAI450   0.0000
    52 H1B         56.9610   -70.5354   -35.1247 H            1 NAI450   0.0000
    53 H8A         58.5571   -69.2759   -31.9186 H            1 NAI450   0.0000
    54 H6A1        63.6513   -72.1221   -33.9190 H            1 NAI450   0.0000
    55 H6A2        62.8492   -71.3578   -32.5877 H            1 NAI450   0.0000
    56 H2A         60.5118   -72.4926   -37.1793 H            1 NAI450   0.0000
    57 H5D1        56.9495   -62.9536   -36.8345 H            1 NAI450   0.0000
    58 H5D2        56.9270   -63.4401   -35.2758 H            1 NAI450   0.0000
    59 H4D         59.0152   -62.3983   -35.8045 H            1 NAI450   0.0000
    60 H3D         57.5944   -61.8322   -33.5882 H            1 NAI450   0.0000
    61 H17         60.0003   -62.3261   -34.1761 H            1 NAI450   0.0000
    62 H2D         57.0080   -59.6699   -34.2457 H            1 NAI450   0.0000
    63 H19         58.4717   -58.2230   -33.2689 H            1 NAI450   0.0000
    64 H1D         59.6220   -59.5691   -35.4825 H            1 NAI450   0.0000
    65 H2N         60.0347   -57.7787   -36.9860 H            1 NAI450   0.0000
    66 H7N1        60.9825   -55.2284   -39.5177 H            1 NAI450   0.0000
    67 H7N2        60.4900   -56.8258   -39.0643 H            1 NAI450   0.0000
    68 H4N1        56.9712   -55.5068   -37.8824 H            1 NAI450   0.0000
    69 H4N2        57.4765   -54.8613   -36.4700 H            1 NAI450   0.0000
    70 H5N         55.5568   -56.2283   -36.1324 H            1 NAI450   0.0000
    71 H6N         56.3115   -58.3572   -35.3226 H            1 NAI450   0.0000
@<TRIPOS>BOND
     1    1    2      ar
     2    1    3      ar
     3    1    4       1
     4    1   23       1
     5    4    5       1
     6    5    6       1
     7    6    7       1
     8    6    8       1
     9    7   12       1
    10    8    9       1
    11    8   10       1
    12   10   11       1
    13   10   12       1
    14   12   13       1
    15   13   14       1
    16   13   22       1
    17   14   15       2
    18   15   16       1
    19   16   17      ar
    20   16   22      ar
    21   17   18       1
    22   17   19      ar
    23   19   20      ar
    24   20   21      ar
    25   21   22      ar
    26   23   24       1
    27   24   25      ar
    28   24   26      ar
    29   24   27       1
    30   27   28       1
    31   28   29       1
    32   29   30       1
    33   29   31       1
    34   30   35       1
    35   31   32       1
    36   31   33       1
    37   33   34       1
    38   33   35       1
    39   35   36       1
    40   36   37       1
    41   36   44       1
    42   37   38       2
    43   38   39       1
    44   38   42       1
    45   39   40       2
    46   39   41      am
    47   42   43       1
    48   43   44       2
    49   44   71       1
    50    5   45       1
    51    5   46       1
    52    6   47       1
    53    8   48       1
    54    9   49       1
    55   10   50       1
    56   11   51       1
    57   12   52       1
    58   14   53       1
    59   18   54       1
    60   18   55       1
    61   20   56       1
    62   43   70       1
    63   28   57       1
    64   28   58       1
    65   29   59       1
    66   31   60       1
    67   32   61       1
    68   33   62       1
    69   34   63       1
    70   35   64       1
    71   37   65       1
    72   41   66       1
    73   41   67       1
    74   42   68       1
    75   42   69       1
@<TRIPOS>SUBSTRUCTURE
     1 NAI450      1 GROUP             4 A     NAI     0 **** NAI A 450
