@<TRIPOS>MOLECULE
2uxw_TH3_1_ligand
   61    60     1     0     0
SMALL
NO_CHARGES


@<TRIPOS>ATOM
     1 C1           1.3530    26.7040    14.2030 C.3          1 TH3750   0.0000
     2 C2           2.4320    27.2910    15.1210 C.2          1 TH3750   0.0000
     3 O2           3.2690    26.5670    15.6570 O.2          1 TH3750   0.0000
     4 N3           2.3920    28.6150    15.2840 N.am         1 TH3750   0.0000
     5 C4           3.3660    29.3240    16.1310 C.3          1 TH3750   0.0000
     6 C5           3.2970    30.8240    15.8500 C.3          1 TH3750   0.0000
     7 S6           4.8830    31.6890    16.1390 S.3          1 TH3750   0.0000
     8 C7           4.8590    31.9100    17.8050 C.2          1 TH3750   0.0000
     9 O7           3.8880    31.4600    18.4060 O.2          1 TH3750   0.0000
    10 C8           5.9290    32.6090    18.3710 C.2          1 TH3750   0.0000
    11 C9           6.0700    32.9040    19.7160 C.2          1 TH3750   0.0000
    12 C10          7.2190    33.5800    20.1350 C.3          1 TH3750   0.0000
    13 C11          8.3390    32.5420    20.3140 C.3          1 TH3750   0.0000
    14 C12          9.7410    33.1560    20.3420 C.3          1 TH3750   0.0000
    15 C13         10.8280    32.0790    20.2110 C.3          1 TH3750   0.0000
    16 C14         11.6470    31.9570    21.5020 C.3          1 TH3750   0.0000
    17 C15         12.6950    30.8360    21.4120 C.3          1 TH3750   0.0000
    18 C16         14.0050    31.2080    22.1290 C.3          1 TH3750   0.0000
    19 C17         13.7440    31.9280    23.4520 C.3          1 TH3750   0.0000
    20 C18         14.9970    32.6490    23.9690 C.3          1 TH3750   0.0000
    21 C19         15.8290    33.2750    22.8380 C.3          1 TH3750   0.0000
    22 C20         16.8520    34.2810    23.3770 C.3          1 TH3750   0.0000
    23 C21         17.6920    34.8590    22.2380 C.3          1 TH3750   0.0000
    24 C22         18.9340    35.5860    22.7630 C.3          1 TH3750   0.0000
    25 H1           0.7681    27.4403    13.8628 H            1 TH3750   0.0000
    26 H2           1.7881    26.2404    13.4312 H            1 TH3750   0.0000
    27 H3           0.7991    26.0485    14.7164 H            1 TH3750   0.0000
    28 H4           1.6804    29.1406    14.8177 H            1 TH3750   0.0000
    29 H5           4.2868    28.9901    15.9296 H            1 TH3750   0.0000
    30 H6           3.1537    29.1560    17.0937 H            1 TH3750   0.0000
    31 H7           2.6026    31.2269    16.4463 H            1 TH3750   0.0000
    32 H8           3.0331    30.9560    14.8945 H            1 TH3750   0.0000
    33 H9           6.6514    32.9213    17.7540 H            1 TH3750   0.0000
    34 H10          5.3648    32.6391    20.3737 H            1 TH3750   0.0000
    35 H11          7.0430    34.0432    21.0036 H            1 TH3750   0.0000
    36 H12          7.4870    34.2537    19.4463 H            1 TH3750   0.0000
    37 H13          8.2929    31.8924    19.5551 H            1 TH3750   0.0000
    38 H14          8.1878    32.0586    21.1762 H            1 TH3750   0.0000
    39 H15          9.8664    33.6411    21.2074 H            1 TH3750   0.0000
    40 H16          9.8289    33.8008    19.5827 H            1 TH3750   0.0000
    41 H17         11.4398    32.3230    19.4585 H            1 TH3750   0.0000
    42 H18         10.3939    31.1995    20.0159 H            1 TH3750   0.0000
    43 H19         11.0266    31.7594    22.2610 H            1 TH3750   0.0000
    44 H20         12.1151    32.8244    21.6712 H            1 TH3750   0.0000
    45 H21         12.8944    30.6578    20.4484 H            1 TH3750   0.0000
    46 H22         12.3204    30.0100    21.8332 H            1 TH3750   0.0000
    47 H23         14.5403    31.8078    21.5343 H            1 TH3750   0.0000
    48 H24         14.5223    30.3720    22.3121 H            1 TH3750   0.0000
    49 H25         13.4532    31.2565    24.1335 H            1 TH3750   0.0000
    50 H26         13.0170    32.6010    23.3158 H            1 TH3750   0.0000
    51 H27         15.5671    31.9890    24.4582 H            1 TH3750   0.0000
    52 H28         14.7131    33.3740    24.5965 H            1 TH3750   0.0000
    53 H29         15.2139    33.7457    22.2055 H            1 TH3750   0.0000
    54 H30         16.3143    32.5481    22.3521 H            1 TH3750   0.0000
    55 H31         17.4547    33.8196    24.0281 H            1 TH3750   0.0000
    56 H32         16.3691    35.0248    23.8391 H            1 TH3750   0.0000
    57 H33         17.1331    35.5057    21.7189 H            1 TH3750   0.0000
    58 H34         17.9822    34.1131    21.6385 H            1 TH3750   0.0000
    59 H35         19.4577    35.9499    21.9927 H            1 TH3750   0.0000
    60 H36         18.6529    36.3376    23.3597 H            1 TH3750   0.0000
    61 H37         19.5021    34.9451    23.2793 H            1 TH3750   0.0000
@<TRIPOS>BOND
     1    1    2       1
     2    2    3       2
     3    2    4      am
     4    4    5       1
     5    5    6       1
     6    6    7       1
     7    7    8       1
     8    8    9       2
     9    8   10       1
    10   10   11       2
    11   11   12       1
    12   12   13       1
    13   13   14       1
    14   14   15       1
    15   15   16       1
    16   16   17       1
    17   17   18       1
    18   18   19       1
    19   19   20       1
    20   20   21       1
    21   21   22       1
    22   22   23       1
    23   23   24       1
    24    1   25       1
    25    1   26       1
    26    1   27       1
    27    4   28       1
    28    5   29       1
    29    5   30       1
    30    6   31       1
    31    6   32       1
    32   10   33       1
    33   11   34       1
    34   12   35       1
    35   12   36       1
    36   13   37       1
    37   13   38       1
    38   14   39       1
    39   14   40       1
    40   15   41       1
    41   15   42       1
    42   16   43       1
    43   16   44       1
    44   17   45       1
    45   17   46       1
    46   18   47       1
    47   18   48       1
    48   19   49       1
    49   19   50       1
    50   20   51       1
    51   20   52       1
    52   21   53       1
    53   21   54       1
    54   22   55       1
    55   22   56       1
    56   23   57       1
    57   23   58       1
    58   24   59       1
    59   24   60       1
    60   24   61       1
@<TRIPOS>SUBSTRUCTURE
     1 TH3750      1 GROUP             4 A     TH3     0 **** TH3 A 750
