@<TRIPOS>MOLECULE
2dq7_STU_1_ligand
   62    69     1     0     0
SMALL
NO_CHARGES


@<TRIPOS>ATOM
     1 O4         -15.0110    20.1620   -13.9350 O.3          1 STU902   0.0000
     2 C25        -14.8410    18.9340   -14.6700 C.3          1 STU902   0.0000
     3 C24        -15.7380    18.7990   -15.9230 C.3          1 STU902   0.0000
     4 C23        -16.4480    20.0920   -16.1960 C.3          1 STU902   0.0000
     5 C22        -17.2790    20.3420   -14.9420 C.3          1 STU902   0.0000
     6 C21        -16.3160    20.6850   -13.7260 C.3          1 STU902   0.0000
     7 C26        -16.0520    22.1960   -13.5440 C.3          1 STU902   0.0000
     8 N2         -16.9390    20.2490   -12.4460 N.pl3        1 STU902   0.0000
     9 C18        -16.7450    18.9490   -12.1130 C.ar         1 STU902   0.0000
    10 C19        -15.9190    17.9010   -12.6540 C.ar         1 STU902   0.0000
    11 C6         -15.8730    16.6270   -11.9850 C.ar         1 STU902   0.0000
    12 C7         -16.6140    16.3480   -10.7920 C.ar         1 STU902   0.0000
    13 C10        -17.4360    17.3700   -10.2580 C.ar         1 STU902   0.0000
    14 C11        -17.4610    18.6370   -10.9240 C.ar         1 STU902   0.0000
    15 C12        -18.2560    19.7840   -10.5930 C.ar         1 STU902   0.0000
    16 C17        -17.8200    20.7400   -11.5370 C.ar         1 STU902   0.0000
    17 C16        -18.4210    21.9960   -11.5170 C.ar         1 STU902   0.0000
    18 C15        -19.3910    22.3400   -10.5460 C.ar         1 STU902   0.0000
    19 C14        -19.7650    21.3880    -9.5730 C.ar         1 STU902   0.0000
    20 C13        -19.2000    20.0680    -9.5850 C.ar         1 STU902   0.0000
    21 C9         -18.1120    16.7780    -9.0440 C.3          1 STU902   0.0000
    22 N1         -17.5470    15.3950    -9.0420 N.am         1 STU902   0.0000
    23 C8         -16.6510    15.1550   -10.0520 C.2          1 STU902   0.0000
    24 O5         -16.0100    14.1080   -10.2170 O.2          1 STU902   0.0000
    25 C5         -15.0000    15.7690   -12.7170 C.ar         1 STU902   0.0000
    26 C20        -14.5650    16.6060   -13.8000 C.ar         1 STU902   0.0000
    27 C1         -13.6730    16.0910   -14.7720 C.ar         1 STU902   0.0000
    28 C2         -13.2370    14.7330   -14.6380 C.ar         1 STU902   0.0000
    29 C3         -13.6650    13.9260   -13.5580 C.ar         1 STU902   0.0000
    30 C4         -14.5650    14.4400   -12.5740 C.ar         1 STU902   0.0000
    31 N3         -15.1080    17.8510   -13.7350 N.pl3        1 STU902   0.0000
    32 O6         -18.0390    19.1520   -14.7230 O.3          1 STU902   0.0000
    33 C27        -19.4150    19.3850   -14.3480 C.3          1 STU902   0.0000
    34 N4         -17.2800    19.9270   -17.4030 N.4          1 STU902   1.0000
    35 C28        -17.8560    21.2250   -17.8740 C.3          1 STU902   0.0000
    36 H1         -13.8858    18.8708   -14.9593 H            1 STU902   0.0000
    37 H2         -16.4134    18.0778   -15.7692 H            1 STU902   0.0000
    38 H3         -15.1703    18.5615   -16.7112 H            1 STU902   0.0000
    39 H4         -15.7868    20.8306   -16.3278 H            1 STU902   0.0000
    40 H5         -17.9002    21.1092   -15.1016 H            1 STU902   0.0000
    41 H6         -16.9189    22.6694   -13.3877 H            1 STU902   0.0000
    42 H7         -15.4490    22.3368   -12.7588 H            1 STU902   0.0000
    43 H8         -15.6172    22.5600   -14.3677 H            1 STU902   0.0000
    44 H9         -18.1605    22.6720   -12.2063 H            1 STU902   0.0000
    45 H10        -19.8077    23.2490   -10.5490 H            1 STU902   0.0000
    46 H11        -20.4301    21.6354    -8.8684 H            1 STU902   0.0000
    47 H12        -19.4643    19.3807    -8.9085 H            1 STU902   0.0000
    48 H13        -19.1066    16.7673    -9.1472 H            1 STU902   0.0000
    49 H14        -17.8687    17.2744    -8.2107 H            1 STU902   0.0000
    50 H15        -17.7999    14.7050    -8.3638 H            1 STU902   0.0000
    51 H16        -13.3562    16.6597   -15.5311 H            1 STU902   0.0000
    52 H17        -12.6175    14.3477   -15.3219 H            1 STU902   0.0000
    53 H18        -13.3342    12.9854   -13.4822 H            1 STU902   0.0000
    54 H19        -14.8746    13.8738   -11.8101 H            1 STU902   0.0000
    55 H20        -19.8769    18.5083   -14.2135 H            1 STU902   0.0000
    56 H21        -19.4444    19.9111   -13.4981 H            1 STU902   0.0000
    57 H22        -19.8760    19.8969   -15.0729 H            1 STU902   0.0000
    58 H23        -18.0296    19.2990   -17.1941 H            1 STU902   0.0000
    59 H24        -18.4105    21.0667   -18.6910 H            1 STU902   0.0000
    60 H25        -18.4282    21.6167   -17.1535 H            1 STU902   0.0000
    61 H26        -17.1143    21.8591   -18.0924 H            1 STU902   0.0000
    62 H27        -16.7157    19.5413   -18.1329 H            1 STU902   0.0000
@<TRIPOS>BOND
     1    1    2       1
     2    1    6       1
     3    2    3       1
     4    2   31       1
     5    3    4       1
     6    4    5       1
     7    4   34       1
     8    5    6       1
     9    5   32       1
    10    6    7       1
    11    6    8       1
    12    8    9       1
    13    8   16       1
    14    9   10      ar
    15    9   14      ar
    16   10   11      ar
    17   10   31       1
    18   11   12      ar
    19   11   25       1
    20   12   13      ar
    21   12   23       1
    22   13   14      ar
    23   13   21       1
    24   14   15       1
    25   15   16      ar
    26   15   20      ar
    27   16   17      ar
    28   17   18      ar
    29   18   19      ar
    30   19   20      ar
    31   21   22       1
    32   22   23      am
    33   23   24       2
    34   25   26      ar
    35   25   30      ar
    36   26   27      ar
    37   26   31       1
    38   27   28      ar
    39   28   29      ar
    40   29   30      ar
    41   32   33       1
    42   34   35       1
    43    2   36       1
    44    3   37       1
    45    3   38       1
    46    4   39       1
    47    5   40       1
    48    7   41       1
    49    7   42       1
    50    7   43       1
    51   17   44       1
    52   18   45       1
    53   19   46       1
    54   20   47       1
    55   21   48       1
    56   21   49       1
    57   22   50       1
    58   27   51       1
    59   28   52       1
    60   29   53       1
    61   30   54       1
    62   33   55       1
    63   33   56       1
    64   33   57       1
    65   34   58       1
    66   35   59       1
    67   35   60       1
    68   35   61       1
    69   34   62       1
@<TRIPOS>SUBSTRUCTURE
     1 STU902      1 GROUP             4 X     STU     0 **** STU X 902
