@<TRIPOS>MOLECULE
4hhz_15S_3_ligand
   70    74     1     0     0
SMALL
NO_CHARGES


@<TRIPOS>ATOM
     1 OAC        -34.9940    53.5700   -63.3930 O.3          1 15S401   0.0000
     2 CAX        -35.4420    53.4960   -64.6590 C.3          1 15S401   0.0000
     3 NAU        -35.5980    52.0180   -65.0170 N.4          1 15S401   1.0000
     4 CAS        -36.2780    51.8500   -66.2980 C.3          1 15S401   0.0000
     5 CBG        -37.6960    52.4870   -66.2440 C.3          1 15S401   0.0000
     6 CBE        -37.7110    53.9110   -65.7010 C.ar         1 15S401   0.0000
     7 CBD        -36.6490    54.3570   -64.9250 C.ar         1 15S401   0.0000
     8 CAI        -36.6970    55.7420   -64.4020 C.ar         1 15S401   0.0000
     9 CAG        -37.7860    56.5620   -64.6590 C.ar         1 15S401   0.0000
    10 CAH        -38.8680    56.0880   -65.4270 C.ar         1 15S401   0.0000
    11 CBC        -38.8050    54.7110   -65.9500 C.ar         1 15S401   0.0000
    12 CAP        -39.9360    54.2050   -66.7560 C.3          1 15S401   0.0000
    13 CAR        -39.5170    53.3210   -67.8590 C.3          1 15S401   0.0000
    14 NBI        -38.5820    52.2510   -67.4910 N.4          1 15S401   1.0000
    15 CAT        -39.0830    50.9360   -67.7440 C.3          1 15S401   0.0000
    16 CAW        -38.8220    50.3780   -69.1310 C.2          1 15S401   0.0000
    17 OAB        -38.8270    49.1730   -69.3270 O.2          1 15S401   0.0000
    18 N          -38.5750    51.3370   -70.1850 N.am         1 15S401   0.0000
    19 CA         -38.3670    50.9460   -71.5320 C.3          1 15S401   0.0000
    20 CB         -39.0370    51.9220   -72.3390 C.3          1 15S401   0.0000
    21 C          -36.8840    51.0110   -71.9150 C.2          1 15S401   0.0000
    22 O          -36.4010    52.0790   -71.9620 O.2          1 15S401   0.0000
    23 NBH        -36.1160    49.8080   -72.2550 N.am         1 15S401   0.0000
    24 CAQ        -34.6900    49.9260   -72.6350 C.3          1 15S401   0.0000
    25 CAO        -34.2450    48.9980   -73.7070 C.3          1 15S401   0.0000
    26 CAN        -36.6540    48.4790   -72.2260 C.3          1 15S401   0.0000
    27 CAF        -36.1850    47.6100   -73.3550 C.3          1 15S401   0.0000
    28 CAY        -35.4110    48.3980   -74.3680 C.3          1 15S401   0.0000
    29 CBB        -35.0380    47.6390   -75.6660 C.ar         1 15S401   0.0000
    30 CAL        -33.8140    47.8800   -76.3360 C.ar         1 15S401   0.0000
    31 CAJ        -33.5050    47.2120   -77.5040 C.ar         1 15S401   0.0000
    32 CBA        -34.4040    46.2870   -78.0230 C.ar         1 15S401   0.0000
    33 FAE        -34.1300    45.6540   -79.1210 F            1 15S401   0.0000
    34 CAK        -35.6020    46.0570   -77.3820 C.ar         1 15S401   0.0000
    35 CAM        -35.9160    46.7500   -76.1900 C.ar         1 15S401   0.0000
    36 HAC        -35.6526    53.1332   -62.7803 H            1 15S401   0.0000
    37 HAX        -34.7088    53.8510   -65.2390 H            1 15S401   0.0000
    38 HAU1       -36.1319    51.5648   -64.3032 H            1 15S401   0.0000
    39 HAS1       -36.3621    50.8745   -66.5014 H            1 15S401   0.0000
    40 HAS2       -35.7434    52.2954   -67.0162 H            1 15S401   0.0000
    41 HBG        -38.1582    51.9621   -65.5293 H            1 15S401   0.0000
    42 HAI        -35.9346    56.0904   -63.8567 H            1 15S401   0.0000
    43 HAG        -37.8032    57.4942   -64.2974 H            1 15S401   0.0000
    44 HAH        -39.6589    56.6710   -65.6127 H            1 15S401   0.0000
    45 HAP1       -40.4241    54.9869   -67.1439 H            1 15S401   0.0000
    46 HAP2       -40.5501    53.6934   -66.1551 H            1 15S401   0.0000
    47 HAR1       -39.0785    53.8866   -68.5575 H            1 15S401   0.0000
    48 HAR2       -40.3372    52.8954   -68.2413 H            1 15S401   0.0000
    49 HAT1       -40.0729    50.9537   -67.6030 H            1 15S401   0.0000
    50 HAT2       -38.6629    50.3162   -67.0812 H            1 15S401   0.0000
    51 H16        -38.5500    52.3100   -69.9558 H            1 15S401   0.0000
    52 HA         -38.7375    50.0322   -71.6983 H            1 15S401   0.0000
    53 HB1        -38.9210    51.6920   -73.3053 H            1 15S401   0.0000
    54 HB2        -40.0111    51.9297   -72.1128 H            1 15S401   0.0000
    55 HB3        -38.6466    52.8255   -72.1622 H            1 15S401   0.0000
    56 HAQ1       -34.1367    49.7477   -71.8213 H            1 15S401   0.0000
    57 HAQ2       -34.5293    50.8618   -72.9488 H            1 15S401   0.0000
    58 HAO1       -33.6828    48.2745   -73.3064 H            1 15S401   0.0000
    59 HAO2       -33.7065    49.5042   -74.3807 H            1 15S401   0.0000
    60 HAN1       -37.6511    48.5417   -72.2699 H            1 15S401   0.0000
    61 HAN2       -36.3846    48.0488   -71.3644 H            1 15S401   0.0000
    62 HAF1       -36.9801    47.1991   -73.8011 H            1 15S401   0.0000
    63 HAF2       -35.5987    46.8879   -72.9877 H            1 15S401   0.0000
    64 HAY        -36.0000    49.1573   -74.6447 H            1 15S401   0.0000
    65 HAL        -33.1660    48.5417   -75.9588 H            1 15S401   0.0000
    66 HAJ        -32.6406    47.3922   -77.9735 H            1 15S401   0.0000
    67 HAK        -36.2515    45.3978   -77.7610 H            1 15S401   0.0000
    68 HAM        -36.7893    46.5833   -75.7321 H            1 15S401   0.0000
    69 HAU2       -34.6917    51.5990   -65.0722 H            1 15S401   0.0000
    70 HBI        -37.9038    52.3362   -68.2209 H            1 15S401   0.0000
@<TRIPOS>BOND
     1    1    2       1
     2    2    3       1
     3    2    7       1
     4    3    4       1
     5    4    5       1
     6    5    6       1
     7    5   14       1
     8    6    7      ar
     9    6   11      ar
    10    7    8      ar
    11    8    9      ar
    12    9   10      ar
    13   10   11      ar
    14   11   12       1
    15   12   13       1
    16   13   14       1
    17   14   15       1
    18   15   16       1
    19   16   17       2
    20   16   18      am
    21   18   19       1
    22   19   20       1
    23   19   21       1
    24   21   22       2
    25   21   23      am
    26   23   24       1
    27   23   26       1
    28   24   25       1
    29   25   28       1
    30   26   27       1
    31   27   28       1
    32   28   29       1
    33   29   30      ar
    34   29   35      ar
    35   30   31      ar
    36   31   32      ar
    37   32   33       1
    38   32   34      ar
    39   34   35      ar
    40    1   36       1
    41    2   37       1
    42    3   38       1
    43    4   39       1
    44    4   40       1
    45    5   41       1
    46    8   42       1
    47    9   43       1
    48   10   44       1
    49   12   45       1
    50   12   46       1
    51   13   47       1
    52   13   48       1
    53   15   49       1
    54   15   50       1
    55   18   51       1
    56   19   52       1
    57   20   53       1
    58   20   54       1
    59   20   55       1
    60   24   56       1
    61   24   57       1
    62   25   58       1
    63   25   59       1
    64   26   60       1
    65   26   61       1
    66   27   62       1
    67   27   63       1
    68   28   64       1
    69   30   65       1
    70   31   66       1
    71   34   67       1
    72   35   68       1
    73    3   69       1
    74   14   70       1
@<TRIPOS>SUBSTRUCTURE
     1 15S401      1 GROUP             4 C     15S     0 **** 15S C 401
