@<TRIPOS>MOLECULE
3zl6_NVU_2_ligand
   19    20     1     0     0
SMALL
NO_CHARGES


@<TRIPOS>ATOM
     1 CA          -5.4310    17.6290    -5.5600 C.3          1 NVU1298   0.0000
     2 C           -6.5850    17.2060    -4.5940 C.2          1 NVU1298   0.0000
     3 O           -7.1970    16.1510    -4.8910 O.co2        1 NVU1298   0.0000
     4 OXT         -6.8460    17.8870    -3.5500 O.co2        1 NVU1298  -1.0000
     5 CB          -5.1780    19.1570    -5.3930 C.2          1 NVU1298   0.0000
     6 CG          -4.0550    19.8530    -5.6510 C.ar         1 NVU1298   0.0000
     7 CD1         -2.8580    19.5130    -6.1710 C.ar         1 NVU1298   0.0000
     8 CE1         -1.8960    20.5100    -6.3240 C.ar         1 NVU1298   0.0000
     9 CZ          -2.1580    21.8200    -5.9450 C.ar         1 NVU1298   0.0000
    10 CE2         -3.4000    22.1230    -5.4080 C.ar         1 NVU1298   0.0000
    11 CD2         -4.3050    21.1420    -5.2810 C.ar         1 NVU1298   0.0000
    12 OH          -5.5600    21.2070    -4.7790 O.2          1 NVU1298   0.0000
    13 NAL         -6.0760    19.9790    -4.8460 N.2          1 NVU1298   0.0000
    14 HA1         -5.6933    17.4322    -6.5047 H            1 NVU1298   0.0000
    15 HA2         -4.5990    17.1230    -5.3328 H            1 NVU1298   0.0000
    16 HD1         -2.6654    18.5693    -6.4401 H            1 NVU1298   0.0000
    17 HE1         -1.0041    20.2785    -6.7124 H            1 NVU1298   0.0000
    18 HZ          -1.4642    22.5313    -6.0572 H            1 NVU1298   0.0000
    19 HE2         -3.6167    23.0560    -5.1207 H            1 NVU1298   0.0000
@<TRIPOS>BOND
     1    1    2       1
     2    1    5       1
     3    2    3      ar
     4    2    4      ar
     5    5    6       1
     6    5   13       2
     7    6    7      ar
     8    6   11      ar
     9    7    8      ar
    10    8    9      ar
    11    9   10      ar
    12   10   11      ar
    13   11   12       1
    14   12   13       1
    15    1   14       1
    16    1   15       1
    17   10   19       1
    18    7   16       1
    19    8   17       1
    20    9   18       1
@<TRIPOS>SUBSTRUCTURE
     1 NVU1298     1 GROUP             4 A     NVU     0 **** NVU A1298
