@<TRIPOS>MOLECULE
2gr3_FAD_1_ligand
   84    89     1     0     0
SMALL
NO_CHARGES


@<TRIPOS>ATOM
     1 PA          61.2380    12.5700     8.7570 P.3          1 FAD1449   0.0000
     2 O1A         61.8170    13.5450     7.7910 O.co2        1 FAD1449   0.0000
     3 O2A         62.2150    11.6560     9.4250 O.co2        1 FAD1449  -1.0000
     4 O5B         60.1040    11.6940     8.0740 O.3          1 FAD1449   0.0000
     5 C5B         59.1490    12.3270     7.2590 C.3          1 FAD1449   0.0000
     6 C4B         58.8810    11.3640     6.1140 C.3          1 FAD1449   0.0000
     7 O4B         57.7670    11.8440     5.3710 O.3          1 FAD1449   0.0000
     8 C3B         60.0610    11.3210     5.1280 C.3          1 FAD1449   0.0000
     9 O3B         60.3200     9.9910     4.7000 O.3          1 FAD1449   0.0000
    10 C2B         59.5470    12.1750     3.9750 C.3          1 FAD1449   0.0000
    11 O2B         60.1630    11.9050     2.7300 O.3          1 FAD1449   0.0000
    12 C1B         58.0900    11.7520     4.0020 C.3          1 FAD1449   0.0000
    13 N9A         57.2350    12.6670     3.2440 N.pl3        1 FAD1449   0.0000
    14 C8A         57.3210    14.0330     3.0610 C.2          1 FAD1449   0.0000
    15 N7A         56.3010    14.4610     2.2810 N.2          1 FAD1449   0.0000
    16 C5A         55.5710    13.3690     1.9200 C.ar         1 FAD1449   0.0000
    17 C6A         54.4280    13.2110     1.1470 C.ar         1 FAD1449   0.0000
    18 N6A         53.8650    14.2160     0.4620 N.pl3        1 FAD1449   0.0000
    19 N1A         53.9150    11.9490     0.9860 N.ar         1 FAD1449   0.0000
    20 C2A         54.5200    10.8830     1.6110 C.ar         1 FAD1449   0.0000
    21 N3A         55.6360    11.0190     2.3780 N.ar         1 FAD1449   0.0000
    22 C4A         56.1500    12.2610     2.5420 C.ar         1 FAD1449   0.0000
    23 N1          68.4140    14.1810    15.8830 N.2          1 FAD1449   0.0000
    24 C2          68.9890    14.1090    17.1380 C.2          1 FAD1449   0.0000
    25 O2          68.3970    14.5590    18.1170 O.2          1 FAD1449   0.0000
    26 N3          70.2350    13.5320    17.2880 N.pl3        1 FAD1449   0.0000
    27 C4          70.9790    13.1070    16.2040 C.2          1 FAD1449   0.0000
    28 O4          72.0780    12.5990    16.3660 O.2          1 FAD1449   0.0000
    29 C4X         70.4480    13.2530    14.9290 C.2          1 FAD1449   0.0000
    30 N5          71.0620    12.8940    13.7440 N.2          1 FAD1449   0.0000
    31 C5X         70.5320    12.9980    12.4950 C.ar         1 FAD1449   0.0000
    32 C6          71.2950    12.6690    11.3690 C.ar         1 FAD1449   0.0000
    33 C7          70.7540    12.7830    10.0820 C.ar         1 FAD1449   0.0000
    34 C7M         71.6100    12.4220     8.8940 C.3          1 FAD1449   0.0000
    35 C8          69.4410    13.2680     9.9500 C.ar         1 FAD1449   0.0000
    36 C8M         68.8030    13.4100     8.5930 C.3          1 FAD1449   0.0000
    37 C9          68.6880    13.5840    11.0630 C.ar         1 FAD1449   0.0000
    38 C9A         69.2270    13.4790    12.3380 C.ar         1 FAD1449   0.0000
    39 N10         68.4850    13.8090    13.5740 N.pl3        1 FAD1449   0.0000
    40 C10         69.1640    13.7850    14.7990 C.2          1 FAD1449   0.0000
    41 C1'         67.1490    14.4120    13.4020 C.3          1 FAD1449   0.0000
    42 C2'         66.0290    13.3710    13.4970 C.3          1 FAD1449   0.0000
    43 O2'         66.3680    12.2600    12.6690 O.3          1 FAD1449   0.0000
    44 C3'         64.7720    14.0550    12.9460 C.3          1 FAD1449   0.0000
    45 O3'         64.3780    15.0370    13.9010 O.3          1 FAD1449   0.0000
    46 C4'         63.6680    13.0490    12.6340 C.3          1 FAD1449   0.0000
    47 O4'         64.0180    12.3160    11.4690 O.3          1 FAD1449   0.0000
    48 C5'         62.3320    13.7610    12.4130 C.3          1 FAD1449   0.0000
    49 O5'         61.3990    12.7580    12.1700 O.3          1 FAD1449   0.0000
    50 P           60.0600    13.0410    11.3740 P.3          1 FAD1449   0.0000
    51 O1P         59.2820    11.7590    11.3260 O.co2        1 FAD1449   0.0000
    52 O2P         59.3490    14.2320    11.9410 O.co2        1 FAD1449  -1.0000
    53 O3P         60.4840    13.4200     9.8570 O.3          1 FAD1449   0.0000
    54 H5B1        59.5077    13.1926     6.9097 H            1 FAD1449   0.0000
    55 H5B2        58.3093    12.4979     7.7744 H            1 FAD1449   0.0000
    56 H4B         58.6923    10.4482     6.4685 H            1 FAD1449   0.0000
    57 H3B         60.8786    11.7286     5.5347 H            1 FAD1449   0.0000
    58 H5          61.0895     9.9902     4.0614 H            1 FAD1449   0.0000
    59 H2B         59.6300    13.1460     4.1992 H            1 FAD1449   0.0000
    60 H7          59.6487    11.1937     2.2509 H            1 FAD1449   0.0000
    61 H1B         57.9857    10.8131     3.6739 H            1 FAD1449   0.0000
    62 H8A         58.0323    14.6198     3.4479 H            1 FAD1449   0.0000
    63 H6A1        53.0414    14.0515    -0.0808 H            1 FAD1449   0.0000
    64 H6A2        54.2685    15.1304     0.4937 H            1 FAD1449   0.0000
    65 H2A         54.1239     9.9719     1.4971 H            1 FAD1449   0.0000
    66 H13         70.6096    13.4185    18.2082 H            1 FAD1449   0.0000
    67 H14         72.2355    12.3494    11.4843 H            1 FAD1449   0.0000
    68 H7M1        71.0859    12.5551     8.0528 H            1 FAD1449   0.0000
    69 H7M2        72.4210    13.0068     8.8775 H            1 FAD1449   0.0000
    70 H7M3        71.8906    11.4647     8.9639 H            1 FAD1449   0.0000
    71 H8M1        67.8747    13.7672     8.6968 H            1 FAD1449   0.0000
    72 H8M2        69.3425    14.0409     8.0354 H            1 FAD1449   0.0000
    73 H8M3        68.7682    12.5162     8.1459 H            1 FAD1449   0.0000
    74 H21         67.7434    13.8921    10.9495 H            1 FAD1449   0.0000
    75 H1'1        67.1064    14.8502    12.5041 H            1 FAD1449   0.0000
    76 H1'2        67.0114    15.0993    14.1152 H            1 FAD1449   0.0000
    77 H2'         65.8911    13.0810    14.4440 H            1 FAD1449   0.0000
    78 H25         66.0067    12.4079    11.7483 H            1 FAD1449   0.0000
    79 H3'         65.0172    14.5240    12.0975 H            1 FAD1449   0.0000
    80 H27         63.9244    15.7949    13.4321 H            1 FAD1449   0.0000
    81 H4'         63.5769    12.4158    13.4026 H            1 FAD1449   0.0000
    82 H29         63.1868    12.0424    10.9850 H            1 FAD1449   0.0000
    83 H5'1        62.3923    14.3772    11.6277 H            1 FAD1449   0.0000
    84 H5'2        62.0773    14.2827    13.2273 H            1 FAD1449   0.0000
@<TRIPOS>BOND
     1    1    2      ar
     2    1    3      ar
     3    1    4       1
     4    1   53       1
     5    4    5       1
     6    5    6       1
     7    6    7       1
     8    6    8       1
     9    7   12       1
    10    8    9       1
    11    8   10       1
    12   10   11       1
    13   10   12       1
    14   12   13       1
    15   13   14       1
    16   13   22       1
    17   14   15       2
    18   15   16       1
    19   16   17      ar
    20   16   22      ar
    21   17   18       1
    22   17   19      ar
    23   19   20      ar
    24   20   21      ar
    25   21   22      ar
    26   23   24       1
    27   23   40       2
    28   24   25       2
    29   24   26       1
    30   26   27       1
    31   27   28       2
    32   27   29       1
    33   29   30       2
    34   29   40       1
    35   30   31       1
    36   31   32      ar
    37   31   38      ar
    38   32   33      ar
    39   33   34       1
    40   33   35      ar
    41   35   36       1
    42   35   37      ar
    43   37   38      ar
    44   38   39       1
    45   39   40       1
    46   39   41       1
    47   41   42       1
    48   42   43       1
    49   42   44       1
    50   44   45       1
    51   44   46       1
    52   46   47       1
    53   46   48       1
    54   48   49       1
    55   49   50       1
    56   50   51      ar
    57   50   52      ar
    58   50   53       1
    59   48   84       1
    60    5   54       1
    61    5   55       1
    62    6   56       1
    63    8   57       1
    64    9   58       1
    65   10   59       1
    66   11   60       1
    67   12   61       1
    68   14   62       1
    69   18   63       1
    70   18   64       1
    71   20   65       1
    72   26   66       1
    73   32   67       1
    74   34   68       1
    75   34   69       1
    76   34   70       1
    77   36   71       1
    78   36   72       1
    79   36   73       1
    80   37   74       1
    81   41   75       1
    82   41   76       1
    83   42   77       1
    84   43   78       1
    85   44   79       1
    86   45   80       1
    87   46   81       1
    88   47   82       1
    89   48   83       1
@<TRIPOS>SUBSTRUCTURE
     1 FAD1449     1 GROUP             4 A     FAD     0 **** FAD A1449
