@<TRIPOS>MOLECULE
3cph_GDP_1_ligand
   40    42     1     0     0
SMALL
NO_CHARGES


@<TRIPOS>ATOM
     1 PB          55.8240    19.1500     8.2690 P.3          1 GDP302   0.0000
     2 O1B         55.2450    19.7770     9.5060 O.co2        1 GDP302   0.0000
     3 O2B         56.8460    18.0810     8.6000 O.co2        1 GDP302  -1.0000
     4 O3B         54.6370    18.5920     7.5160 O.co2        1 GDP302  -1.0000
     5 O3A         56.5280    20.3460     7.4560 O.3          1 GDP302   0.0000
     6 PA          58.0270    20.2280     6.8870 P.3          1 GDP302   0.0000
     7 O1A         59.0590    20.2730     7.9890 O.co2        1 GDP302   0.0000
     8 O2A         58.1490    18.9400     6.1000 O.co2        1 GDP302  -1.0000
     9 O5'         58.1970    21.5370     5.9560 O.3          1 GDP302   0.0000
    10 C5'         57.0570    22.2240     5.4150 C.3          1 GDP302   0.0000
    11 C4'         57.4010    23.3570     4.4340 C.3          1 GDP302   0.0000
    12 O4'         57.4280    24.6300     5.1040 O.3          1 GDP302   0.0000
    13 C3'         58.7550    23.1940     3.7620 C.3          1 GDP302   0.0000
    14 O3'         58.6830    23.6310     2.4100 O.3          1 GDP302   0.0000
    15 C2'         59.6710    24.0950     4.5470 C.3          1 GDP302   0.0000
    16 O2'         60.7310    24.6230     3.7450 O.3          1 GDP302   0.0000
    17 C1'         58.7450    25.1800     5.0800 C.3          1 GDP302   0.0000
    18 N9          59.1590    25.5750     6.4380 N.pl3        1 GDP302   0.0000
    19 C8          59.3490    24.7780     7.5050 C.2          1 GDP302   0.0000
    20 N7          59.7410    25.5010     8.5910 N.2          1 GDP302   0.0000
    21 C5          59.8070    26.7850     8.2150 C.2          1 GDP302   0.0000
    22 C6          60.1520    28.0800     8.8490 C.2          1 GDP302   0.0000
    23 O6          60.4900    28.1950    10.0490 O.2          1 GDP302   0.0000
    24 N1          60.0810    29.1610     8.0720 N.pl3        1 GDP302   0.0000
    25 C2          59.7180    29.1150     6.7680 C.2          1 GDP302   0.0000
    26 N2          59.6680    30.2670     6.0500 N.pl3        1 GDP302   0.0000
    27 N3          59.3930    27.9660     6.1300 N.2          1 GDP302   0.0000
    28 C4          59.4240    26.8080     6.7930 C.2          1 GDP302   0.0000
    29 H5'1        56.5388    22.6158     6.1752 H            1 GDP302   0.0000
    30 H5'2        56.4893    21.5560     4.9339 H            1 GDP302   0.0000
    31 H4'         56.6967    23.3870     3.7248 H            1 GDP302   0.0000
    32 H3'         59.0636    22.2441     3.8118 H            1 GDP302   0.0000
    33 H5          59.3281    24.3817     2.2675 H            1 GDP302   0.0000
    34 H2'         60.0592    23.5848     5.3145 H            1 GDP302   0.0000
    35 H7          61.5161    24.0047     3.7812 H            1 GDP302   0.0000
    36 H1'         58.7695    25.9747     4.4735 H            1 GDP302   0.0000
    37 H9          59.2196    23.7864     7.5014 H            1 GDP302   0.0000
    38 H10         60.3069    30.0494     8.4716 H            1 GDP302   0.0000
    39 H11         59.4012    30.2445     5.0865 H            1 GDP302   0.0000
    40 H12         59.8979    31.1376     6.4849 H            1 GDP302   0.0000
@<TRIPOS>BOND
     1    1    2      ar
     2    1    3      ar
     3    1    4      ar
     4    1    5       1
     5    5    6       1
     6    6    7      ar
     7    6    8      ar
     8    6    9       1
     9    9   10       1
    10   10   11       1
    11   11   12       1
    12   11   13       1
    13   12   17       1
    14   13   14       1
    15   13   15       1
    16   15   16       1
    17   15   17       1
    18   17   18       1
    19   18   19       1
    20   18   28       1
    21   19   20       2
    22   20   21       1
    23   21   22       1
    24   21   28       2
    25   22   23       2
    26   22   24       1
    27   24   25       1
    28   25   26       1
    29   25   27       2
    30   27   28       1
    31   26   40       1
    32   26   39       1
    33   24   38       1
    34   10   29       1
    35   10   30       1
    36   11   31       1
    37   13   32       1
    38   14   33       1
    39   15   34       1
    40   16   35       1
    41   17   36       1
    42   19   37       1
@<TRIPOS>SUBSTRUCTURE
     1 GDP302      1 GROUP             4 A     GDP     0 **** GDP A 302
