@<TRIPOS>MOLECULE
4qez_ADE_1_ligand
   15    16     1     0     0
SMALL
NO_CHARGES


@<TRIPOS>ATOM
     1 N9          22.2040    -1.5630     3.6870 N.2          1 ADE301   0.0000
     2 C8          21.3540    -0.5090     3.7530 C.2          1 ADE301   0.0000
     3 N7          20.5800    -0.6050     4.8630 N.pl3        1 ADE301   0.0000
     4 C5          20.9200    -1.7140     5.5190 C.ar         1 ADE301   0.0000
     5 C6          20.4700    -2.3590     6.7570 C.ar         1 ADE301   0.0000
     6 N6          19.4860    -1.8060     7.4940 N.pl3        1 ADE301   0.0000
     7 N1          21.0770    -3.5060     7.1000 N.ar         1 ADE301   0.0000
     8 C2          22.0640    -4.0440     6.3490 C.ar         1 ADE301   0.0000
     9 N3          22.5220    -3.5090     5.2020 N.ar         1 ADE301   0.0000
    10 C4          21.9950    -2.3530     4.7440 C.ar         1 ADE301   0.0000
    11 H1          21.3048     0.2307     3.0819 H            1 ADE301   0.0000
    12 H2          19.1831    -2.2500     8.3373 H            1 ADE301   0.0000
    13 H3          19.0590    -0.9518     7.1975 H            1 ADE301   0.0000
    14 H4          22.4813    -4.8955     6.6666 H            1 ADE301   0.0000
    15 H5          19.8740     0.0461     5.1417 H            1 ADE301   0.0000
@<TRIPOS>BOND
     1    1    2       2
     2    1   10       1
     3    2    3       1
     4    3    4       1
     5    4    5      ar
     6    4   10      ar
     7    5    6       1
     8    5    7      ar
     9    7    8      ar
    10    8    9      ar
    11    9   10      ar
    12    8   14       1
    13    2   11       1
    14    6   12       1
    15    6   13       1
    16    3   15       1
@<TRIPOS>SUBSTRUCTURE
     1 ADE301      1 GROUP             4 A     ADE     0 **** ADE A 301
