@<TRIPOS>MOLECULE
1ek2_CDU_1_ligand
   54    54     1     0     0
SMALL
NO_CHARGES


@<TRIPOS>ATOM
     1 C1         -41.5100  -114.2050   -26.3170 C.3          1 CDU1100   0.0000
     2 C2         -40.1420  -113.4190   -26.5350 C.3          1 CDU1100   0.0000
     3 C3         -40.2520  -112.2430   -27.6010 C.3          1 CDU1100   0.0000
     4 C4         -41.0750  -112.6590   -28.9050 C.3          1 CDU1100   0.0000
     5 C5         -42.4770  -113.3250   -28.5940 C.3          1 CDU1100   0.0000
     6 C6         -42.2140  -114.6060   -27.6890 C.3          1 CDU1100   0.0000
     7 N1         -43.1210  -113.6960   -29.9300 N.pl3        1 CDU1100   0.0000
     8 C8         -44.3210  -114.2880   -30.2350 C.2          1 CDU1100   0.0000
     9 O          -45.0520  -114.5700   -29.2620 O.3          1 CDU1100   0.0000
    10 N2         -44.8290  -114.6370   -31.4550 N.2          1 CDU1100   0.0000
    11 C11        -46.1560  -115.3150   -31.6490 C.3          1 CDU1100   0.0000
    12 C12        -46.4210  -115.6030   -33.1340 C.3          1 CDU1100   0.0000
    13 C13        -47.7870  -116.3240   -33.3400 C.3          1 CDU1100   0.0000
    14 C14        -48.1860  -116.5080   -34.8550 C.3          1 CDU1100   0.0000
    15 C15        -49.7300  -116.7880   -35.1160 C.3          1 CDU1100   0.0000
    16 C16        -50.0870  -118.3070   -35.0610 C.3          1 CDU1100   0.0000
    17 C17        -51.6050  -118.6020   -35.3160 C.3          1 CDU1100   0.0000
    18 C18        -51.9280  -120.1410   -35.2540 C.3          1 CDU1100   0.0000
    19 C19        -53.4380  -120.4610   -35.4970 C.3          1 CDU1100   0.0000
    20 C20        -53.7500  -121.9800   -35.4350 C.3          1 CDU1100   0.0000
    21 H1         -42.1338  -113.6229   -25.7955 H            1 CDU1100   0.0000
    22 H2         -41.3207  -115.0390   -25.7988 H            1 CDU1100   0.0000
    23 H3         -39.4499  -114.0685   -26.8498 H            1 CDU1100   0.0000
    24 H4         -39.8582  -113.0278   -25.6596 H            1 CDU1100   0.0000
    25 H5         -39.3289  -111.9765   -27.8781 H            1 CDU1100   0.0000
    26 H6         -40.7087  -111.4643   -27.1707 H            1 CDU1100   0.0000
    27 H7         -40.5263  -113.3105   -29.4289 H            1 CDU1100   0.0000
    28 H8         -41.2314  -111.8378   -29.4538 H            1 CDU1100   0.0000
    29 H9         -43.0600  -112.6768   -28.1042 H            1 CDU1100   0.0000
    30 H10        -43.0876  -115.0502   -27.4901 H            1 CDU1100   0.0000
    31 H11        -41.6227  -115.2411   -28.1860 H            1 CDU1100   0.0000
    32 H12        -42.5656  -113.4647   -30.7287 H            1 CDU1100   0.0000
    33 H13        -46.8800  -114.7214   -31.2977 H            1 CDU1100   0.0000
    34 H14        -46.1582  -116.1781   -31.1440 H            1 CDU1100   0.0000
    35 H15        -45.6893  -116.1856   -33.4878 H            1 CDU1100   0.0000
    36 H16        -46.4308  -114.7383   -33.6361 H            1 CDU1100   0.0000
    37 H17        -48.4991  -115.7856   -32.8893 H            1 CDU1100   0.0000
    38 H18        -47.7338  -117.2280   -32.9157 H            1 CDU1100   0.0000
    39 H19        -47.6650  -117.2789   -35.2213 H            1 CDU1100   0.0000
    40 H20        -47.9352  -115.6732   -35.3451 H            1 CDU1100   0.0000
    41 H21        -49.9701  -116.4359   -36.0206 H            1 CDU1100   0.0000
    42 H22        -50.2639  -116.3089   -34.4193 H            1 CDU1100   0.0000
    43 H23        -49.8442  -118.6566   -34.1561 H            1 CDU1100   0.0000
    44 H24        -49.5506  -118.7836   -35.7575 H            1 CDU1100   0.0000
    45 H25        -51.8529  -118.2568   -36.2212 H            1 CDU1100   0.0000
    46 H26        -52.1464  -118.1307   -34.6198 H            1 CDU1100   0.0000
    47 H27        -51.6715  -120.4838   -34.3503 H            1 CDU1100   0.0000
    48 H28        -51.3872  -120.6081   -35.9535 H            1 CDU1100   0.0000
    49 H29        -53.6954  -120.1188   -36.4007 H            1 CDU1100   0.0000
    50 H30        -53.9797  -119.9950   -34.7974 H            1 CDU1100   0.0000
    51 H31        -54.7259  -122.1267   -35.5967 H            1 CDU1100   0.0000
    52 H32        -53.2205  -122.4579   -36.1358 H            1 CDU1100   0.0000
    53 H33        -53.5047  -122.3341   -34.5325 H            1 CDU1100   0.0000
    54 H34        -45.9405  -115.0033   -29.4131 H            1 CDU1100   0.0000
@<TRIPOS>BOND
     1    1    2       1
     2    1    6       1
     3    2    3       1
     4    3    4       1
     5    4    5       1
     6    5    6       1
     7    5    7       1
     8    7    8       1
     9    8    9       1
    10    8   10       2
    11   10   11       1
    12   11   12       1
    13   12   13       1
    14   13   14       1
    15   14   15       1
    16   15   16       1
    17   16   17       1
    18   17   18       1
    19   18   19       1
    20   19   20       1
    21    1   21       1
    22    1   22       1
    23    2   23       1
    24    2   24       1
    25    3   25       1
    26    3   26       1
    27    4   27       1
    28    4   28       1
    29    5   29       1
    30    6   30       1
    31    6   31       1
    32    7   32       1
    33    9   54       1
    34   11   33       1
    35   11   34       1
    36   12   35       1
    37   12   36       1
    38   13   37       1
    39   13   38       1
    40   14   39       1
    41   14   40       1
    42   15   41       1
    43   15   42       1
    44   16   43       1
    45   16   44       1
    46   17   45       1
    47   17   46       1
    48   18   47       1
    49   18   48       1
    50   19   49       1
    51   19   50       1
    52   20   51       1
    53   20   52       1
    54   20   53       1
@<TRIPOS>SUBSTRUCTURE
     1 CDU1100     1 GROUP             4 A     CDU     0 **** CDU A1100
