@<TRIPOS>MOLECULE
1ps9_MDE_1_ligand
  117   119     1     0     0
SMALL
NO_CHARGES


@<TRIPOS>ATOM
     1 P1A         25.7540     5.2590    22.9780 P.3          1 MDE704   0.0000
     2 O1A         25.3370     6.0180    24.1910 O.co2        1 MDE704   0.0000
     3 O2A         25.6970     6.0690    21.7570 O.co2        1 MDE704  -1.0000
     4 O5B         27.2360     4.6590    23.1000 O.3          1 MDE704   0.0000
     5 C5B         28.0960     4.0190    22.1450 C.3          1 MDE704   0.0000
     6 C4B         29.3880     3.6690    22.8320 C.3          1 MDE704   0.0000
     7 O4B         30.4310     3.0260    22.0740 O.3          1 MDE704   0.0000
     8 C1B         31.3080     4.0620    21.5790 C.3          1 MDE704   0.0000
     9 N9A         31.1070     4.2470    20.1030 N.pl3        1 MDE704   0.0000
    10 C4A         32.2080     4.3950    19.2850 C.ar         1 MDE704   0.0000
    11 N3A         33.4530     4.3830    19.7240 N.ar         1 MDE704   0.0000
    12 C2A         34.4230     4.5530    18.7020 C.ar         1 MDE704   0.0000
    13 N1A         34.1140     4.7220    17.3170 N.ar         1 MDE704   0.0000
    14 C6A         32.8010     4.7330    16.8640 C.ar         1 MDE704   0.0000
    15 N6A         32.5070     4.8970    15.5060 N.pl3        1 MDE704   0.0000
    16 C5A         31.7500     4.5590    17.8990 C.ar         1 MDE704   0.0000
    17 N7A         30.3240     4.5040    17.9290 N.2          1 MDE704   0.0000
    18 C8A         30.0000     4.3180    19.2600 C.2          1 MDE704   0.0000
    19 C2B         31.0500     5.3560    22.4210 C.3          1 MDE704   0.0000
    20 O2B         32.3660     5.9090    22.9380 O.3          1 MDE704   0.0000
    21 C3B         30.0170     4.9020    23.5080 C.3          1 MDE704   0.0000
    22 O3B         30.6960     4.5100    24.7340 O.3          1 MDE704   0.0000
    23 P3B         29.9040     4.6900    26.1680 P.3          1 MDE704   0.0000
    24 O7B         28.8990     5.7700    26.1720 O.co2        1 MDE704   0.0000
    25 O8B         29.2550     3.2980    26.2400 O.co2        1 MDE704  -1.0000
    26 O9B         30.8500     4.8660    27.2970 O.co2        1 MDE704  -1.0000
    27 O3A         25.0840     3.8150    22.9360 O.3          1 MDE704   0.0000
    28 P2A         23.5470     3.8290    22.6000 P.3          1 MDE704   0.0000
    29 O4A         23.0020     2.4510    22.5880 O.co2        1 MDE704   0.0000
    30 O5A         22.8210     4.6670    23.5900 O.co2        1 MDE704  -1.0000
    31 O6A         23.4790     4.4800    21.1090 O.3          1 MDE704   0.0000
    32 CCP         22.2380     5.0900    20.8380 C.3          1 MDE704   0.0000
    33 CBP         22.0930     5.7620    19.4520 C.3          1 MDE704   0.0000
    34 CDP         22.2580     4.7170    18.3290 C.3          1 MDE704   0.0000
    35 CEP         20.5810     6.3450    19.5280 C.3          1 MDE704   0.0000
    36 CAP         23.1810     6.9170    19.3570 C.3          1 MDE704   0.0000
    37 OAP         24.5430     6.4650    19.2170 O.3          1 MDE704   0.0000
    38 C9P         22.8140     7.9680    18.2480 C.2          1 MDE704   0.0000
    39 O9P         22.0010     8.8600    18.4780 O.2          1 MDE704   0.0000
    40 N8P         23.4370     7.8660    16.9970 N.am         1 MDE704   0.0000
    41 C7P         23.1540     8.7930    15.9250 C.3          1 MDE704   0.0000
    42 C6P         21.7710     8.5450    15.3390 C.3          1 MDE704   0.0000
    43 C5P         21.3790     9.4760    14.2330 C.2          1 MDE704   0.0000
    44 O5P         21.1820    10.6750    14.4440 O.2          1 MDE704   0.0000
    45 N4P         21.2600     8.9100    12.9770 N.am         1 MDE704   0.0000
    46 C3P         20.8890     9.7150    11.8190 C.3          1 MDE704   0.0000
    47 C2P         19.3940    10.0850    11.7310 C.3          1 MDE704   0.0000
    48 S1P         18.2390     8.6910    12.0410 S.3          1 MDE704   0.0000
    49 C1'         18.3170     7.6760    10.5720 C.2          1 MDE704   0.0000
    50 O1'         19.0330     7.9740     9.6350 O.2          1 MDE704   0.0000
    51 C2'         17.4690     6.4360    10.4640 C.3          1 MDE704   0.0000
    52 C3'         16.6920     5.9490    11.5770 C.3          1 MDE704   0.0000
    53 C4'         15.8200     4.7460    11.4250 C.3          1 MDE704   0.0000
    54 C5'         15.1600     4.2930    12.7460 C.3          1 MDE704   0.0000
    55 SG          14.0520     2.8830    12.3740 S.3          1 MDE704   0.0000
    56 CB          15.0110     1.6890    11.4020 C.3          1 MDE704   0.0000
    57 CB1         14.1180     0.4730    11.0600 C.3          1 MDE704   0.0000
    58 OB1         14.7780    -0.5260    10.2930 O.3          1 MDE704   0.0000
    59 C6'         16.1370     3.7550    13.8160 C.3          1 MDE704   0.0000
    60 C7'         16.7060     4.8030    14.7750 C.3          1 MDE704   0.0000
    61 C8'         17.6700     4.2020    15.7950 C.3          1 MDE704   0.0000
    62 C9'         18.2690     5.2350    16.7360 C.3          1 MDE704   0.0000
    63 C10         19.4880     5.9060    16.1000 C.3          1 MDE704   0.0000
    64 H5B1        28.2761     4.6404    21.3825 H            1 MDE704   0.0000
    65 H5B2        27.6598     3.1874    21.8013 H            1 MDE704   0.0000
    66 H4B         29.1495     3.0376    23.5698 H            1 MDE704   0.0000
    67 H1B         32.2527     3.7720    21.7323 H            1 MDE704   0.0000
    68 H2A         35.3868     4.5546    18.9688 H            1 MDE704   0.0000
    69 H6A1        31.5558     4.9024    15.1975 H            1 MDE704   0.0000
    70 H6A2        33.2481     5.0088    14.8439 H            1 MDE704   0.0000
    71 H8A         29.0582     4.2415    19.5874 H            1 MDE704   0.0000
    72 H2B         30.6201     6.0422    21.8342 H            1 MDE704   0.0000
    73 H10         32.8117     5.2243    23.5147 H            1 MDE704   0.0000
    74 H3B         29.3337     5.6115    23.6805 H            1 MDE704   0.0000
    75 HCP1        22.0847     5.7913    21.5342 H            1 MDE704   0.0000
    76 HCP2        21.5305     4.3871    20.9114 H            1 MDE704   0.0000
    77 HDP1        22.1620     5.1649    17.4401 H            1 MDE704   0.0000
    78 HDP2        23.1632     4.2972    18.3947 H            1 MDE704   0.0000
    79 HDP3        21.5557     4.0115    18.4243 H            1 MDE704   0.0000
    80 HEP1        20.3609     6.8132    18.6722 H            1 MDE704   0.0000
    81 HEP2        19.9397     5.5909    19.6699 H            1 MDE704   0.0000
    82 HEP3        20.5104     6.9903    20.2887 H            1 MDE704   0.0000
    83 HAP         23.1404     7.4076    20.2274 H            1 MDE704   0.0000
    84 H21         24.9508     6.3501    20.1228 H            1 MDE704   0.0000
    85 H8P         24.0965     7.1305    16.8415 H            1 MDE704   0.0000
    86 H7P1        23.8391     8.6796    15.2054 H            1 MDE704   0.0000
    87 H7P2        23.1957     9.7267    16.2807 H            1 MDE704   0.0000
    88 H6P1        21.1005     8.6373    16.0751 H            1 MDE704   0.0000
    89 H6P2        21.7477     7.6112    14.9820 H            1 MDE704   0.0000
    90 H4P         21.4313     7.9317    12.8607 H            1 MDE704   0.0000
    91 H3P1        21.1302     9.2021    10.9951 H            1 MDE704   0.0000
    92 H3P2        21.4169    10.5638    11.8498 H            1 MDE704   0.0000
    93 H2P1        19.2145    10.4402    10.8136 H            1 MDE704   0.0000
    94 H2P2        19.2094    10.7986    12.4068 H            1 MDE704   0.0000
    95 H2'1        18.0879     5.6937    10.2071 H            1 MDE704   0.0000
    96 H2'2        16.8213     6.6023     9.7205 H            1 MDE704   0.0000
    97 H3'1        16.0964     6.7004    11.8610 H            1 MDE704   0.0000
    98 H3'2        17.3401     5.7421    12.3099 H            1 MDE704   0.0000
    99 H4'1        16.3774     3.9931    11.0751 H            1 MDE704   0.0000
   100 H4'2        15.0977     4.9596    10.7672 H            1 MDE704   0.0000
   101 H5'         14.6258     5.0466    13.1290 H            1 MDE704   0.0000
   102 HB1         15.8014     1.3840    11.9332 H            1 MDE704   0.0000
   103 HB2         15.3244     2.1215    10.5566 H            1 MDE704   0.0000
   104 HB11        13.3277     0.7983    10.5408 H            1 MDE704   0.0000
   105 HB12        13.8073     0.0594    11.9158 H            1 MDE704   0.0000
   106 H43         15.2096    -1.1868    10.9071 H            1 MDE704   0.0000
   107 H6'1        16.9040     3.3217    13.3428 H            1 MDE704   0.0000
   108 H6'2        15.6516     3.0707    14.3602 H            1 MDE704   0.0000
   109 H7'1        15.9483     5.2337    15.2653 H            1 MDE704   0.0000
   110 H7'2        17.1937     5.4942    14.2417 H            1 MDE704   0.0000
   111 H8'1        18.4145     3.7522    15.3017 H            1 MDE704   0.0000
   112 H8'2        17.1746     3.5255    16.3399 H            1 MDE704   0.0000
   113 H9'1        18.5480     4.7837    17.5836 H            1 MDE704   0.0000
   114 H9'2        17.5806     5.9311    16.9399 H            1 MDE704   0.0000
   115 H52         19.8660     6.5805    16.7342 H            1 MDE704   0.0000
   116 H53         20.1811     5.2144    15.8969 H            1 MDE704   0.0000
   117 H54         19.2137     6.3617    15.2532 H            1 MDE704   0.0000
@<TRIPOS>BOND
     1    1    2      ar
     2    1    3      ar
     3    1    4       1
     4    1   27       1
     5    4    5       1
     6    5    6       1
     7    6    7       1
     8    6   21       1
     9    7    8       1
    10    8    9       1
    11    8   19       1
    12    9   10       1
    13    9   18       1
    14   10   11      ar
    15   10   16      ar
    16   11   12      ar
    17   12   13      ar
    18   13   14      ar
    19   14   15       1
    20   14   16      ar
    21   16   17       1
    22   17   18       2
    23   19   20       1
    24   19   21       1
    25   21   22       1
    26   22   23       1
    27   23   24      ar
    28   23   25      ar
    29   23   26      ar
    30   27   28       1
    31   28   29      ar
    32   28   30      ar
    33   28   31       1
    34   31   32       1
    35   32   33       1
    36   33   34       1
    37   33   35       1
    38   33   36       1
    39   36   37       1
    40   36   38       1
    41   38   39       2
    42   38   40      am
    43   40   41       1
    44   41   42       1
    45   42   43       1
    46   43   44       2
    47   43   45      am
    48   45   46       1
    49   46   47       1
    50   47   48       1
    51   48   49       1
    52   49   50       2
    53   49   51       1
    54   51   52       1
    55   52   53       1
    56   53   54       1
    57   54   55       1
    58   54   59       1
    59   55   56       1
    60   56   57       1
    61   57   58       1
    62   59   60       1
    63   60   61       1
    64   61   62       1
    65   62   63       1
    66   63  117       1
    67    5   64       1
    68    5   65       1
    69    6   66       1
    70    8   67       1
    71   12   68       1
    72   15   69       1
    73   15   70       1
    74   18   71       1
    75   19   72       1
    76   20   73       1
    77   21   74       1
    78   63  116       1
    79   63  115       1
    80   62  114       1
    81   32   75       1
    82   32   76       1
    83   34   77       1
    84   34   78       1
    85   34   79       1
    86   35   80       1
    87   35   81       1
    88   35   82       1
    89   36   83       1
    90   37   84       1
    91   40   85       1
    92   41   86       1
    93   41   87       1
    94   42   88       1
    95   42   89       1
    96   45   90       1
    97   46   91       1
    98   46   92       1
    99   47   93       1
   100   47   94       1
   101   51   95       1
   102   51   96       1
   103   52   97       1
   104   52   98       1
   105   53   99       1
   106   53  100       1
   107   54  101       1
   108   56  102       1
   109   56  103       1
   110   57  104       1
   111   57  105       1
   112   58  106       1
   113   59  107       1
   114   59  108       1
   115   60  109       1
   116   60  110       1
   117   61  111       1
   118   61  112       1
   119   62  113       1
@<TRIPOS>SUBSTRUCTURE
     1 MDE704      1 GROUP             4 A     MDE     0 **** MDE A 704
