@<TRIPOS>MOLECULE
3kb1_ADP_1_ligand
   39    41     1     0     0
SMALL
NO_CHARGES


@<TRIPOS>ATOM
     1 PB          -9.9320    -7.3210    16.1910 P.3          1 ADP301   0.0000
     2 O1B        -10.2230    -5.9940    15.6160 O.co2        1 ADP301   0.0000
     3 O2B        -10.1800    -8.4260    15.2300 O.co2        1 ADP301  -1.0000
     4 O3B        -11.0390    -7.5850    17.4430 O.co2        1 ADP301  -1.0000
     5 PA          -7.7260    -6.4220    17.6410 P.3          1 ADP301   0.0000
     6 O1A         -8.3690    -5.9310    18.8900 O.co2        1 ADP301   0.0000
     7 O2A         -7.2110    -5.3670    16.7620 O.co2        1 ADP301  -1.0000
     8 O3A         -8.5890    -7.4120    16.8720 O.3          1 ADP301   0.0000
     9 O5'         -6.3940    -7.2220    18.1190 O.3          1 ADP301   0.0000
    10 C5'         -6.4510    -8.1030    19.2530 C.3          1 ADP301   0.0000
    11 C4'         -5.3540    -7.9870    20.3650 C.3          1 ADP301   0.0000
    12 O4'         -4.1000    -8.3150    19.7370 O.3          1 ADP301   0.0000
    13 C3'         -5.1070    -6.5680    21.0210 C.3          1 ADP301   0.0000
    14 O3'         -4.5930    -6.6650    22.3740 O.3          1 ADP301   0.0000
    15 C2'         -4.0870    -6.0180    20.0500 C.3          1 ADP301   0.0000
    16 O2'         -3.5090    -4.8300    20.6210 O.3          1 ADP301   0.0000
    17 C1'         -3.1620    -7.2380    19.9380 C.3          1 ADP301   0.0000
    18 N9          -2.3340    -7.2240    18.7460 N.pl3        1 ADP301   0.0000
    19 C8          -2.7410    -7.0920    17.4510 C.2          1 ADP301   0.0000
    20 N7          -1.7800    -7.1270    16.5860 N.2          1 ADP301   0.0000
    21 C5          -0.6290    -7.3040    17.3490 C.ar         1 ADP301   0.0000
    22 C6           0.7490    -7.4200    17.0200 C.ar         1 ADP301   0.0000
    23 N6           1.2120    -7.3850    15.7860 N.pl3        1 ADP301   0.0000
    24 N1           1.6350    -7.5860    18.0380 N.ar         1 ADP301   0.0000
    25 C2           1.1980    -7.6300    19.3080 C.ar         1 ADP301   0.0000
    26 N3          -0.0710    -7.5290    19.7400 N.ar         1 ADP301   0.0000
    27 C4          -0.9520    -7.3660    18.6860 C.ar         1 ADP301   0.0000
    28 H5'1        -6.4113    -9.0376    18.8995 H            1 ADP301   0.0000
    29 H5'2        -7.3343    -7.9517    19.6967 H            1 ADP301   0.0000
    30 H4'         -5.5449    -8.6535    21.0857 H            1 ADP301   0.0000
    31 H3'         -5.9435    -6.0204    21.0006 H            1 ADP301   0.0000
    32 H5          -5.3563    -6.6886    23.0196 H            1 ADP301   0.0000
    33 H2'         -4.5124    -5.8151    19.1680 H            1 ADP301   0.0000
    34 H7          -2.8309    -4.4529    19.9902 H            1 ADP301   0.0000
    35 H1'         -2.6179    -7.3690    20.7667 H            1 ADP301   0.0000
    36 H9          -3.7002    -6.9779    17.1924 H            1 ADP301   0.0000
    37 H10          2.1939    -7.4720    15.6177 H            1 ADP301   0.0000
    38 H11          0.5813    -7.2714    15.0183 H            1 ADP301   0.0000
    39 H12          1.8970    -7.7519    20.0126 H            1 ADP301   0.0000
@<TRIPOS>BOND
     1    1    2      ar
     2    1    3      ar
     3    1    4      ar
     4    1    8       1
     5    5    6      ar
     6    5    7      ar
     7    5    8       1
     8    5    9       1
     9    9   10       1
    10   10   11       1
    11   11   12       1
    12   11   13       1
    13   12   17       1
    14   13   14       1
    15   13   15       1
    16   15   16       1
    17   15   17       1
    18   17   18       1
    19   18   19       1
    20   18   27       1
    21   19   20       2
    22   20   21       1
    23   21   22      ar
    24   21   27      ar
    25   22   23       1
    26   22   24      ar
    27   24   25      ar
    28   25   26      ar
    29   26   27      ar
    30   25   39       1
    31   23   38       1
    32   23   37       1
    33   10   28       1
    34   10   29       1
    35   11   30       1
    36   13   31       1
    37   14   32       1
    38   15   33       1
    39   16   34       1
    40   17   35       1
    41   19   36       1
@<TRIPOS>SUBSTRUCTURE
     1 ADP301      1 GROUP             4 A     ADP     0 **** ADP A 301
