@<TRIPOS>MOLECULE
3ojw_FAD_2_ligand
   84    89     1     0     0
SMALL
NO_CHARGES


@<TRIPOS>ATOM
     1 PA          20.4050    10.2660    11.8560 P.3          1 FAD752   0.0000
     2 O1A         21.7700    10.7160    12.1480 O.co2        1 FAD752   0.0000
     3 O2A         19.5220    10.0640    12.9800 O.co2        1 FAD752  -1.0000
     4 O5B         19.6860    11.2730    10.8330 O.3          1 FAD752   0.0000
     5 C5B         18.3370    11.1320    10.3430 C.3          1 FAD752   0.0000
     6 C4B         17.7200    12.5080    10.1800 C.3          1 FAD752   0.0000
     7 O4B         18.4390    13.2260     9.1790 O.3          1 FAD752   0.0000
     8 C3B         16.2670    12.5010     9.6870 C.3          1 FAD752   0.0000
     9 O3B         15.3470    12.3840    10.7670 O.3          1 FAD752   0.0000
    10 C2B         16.1250    13.8130     8.9540 C.3          1 FAD752   0.0000
    11 O2B         15.6470    14.8830     9.7830 O.3          1 FAD752   0.0000
    12 C1B         17.5260    14.0350     8.4280 C.3          1 FAD752   0.0000
    13 N9A         17.7550    13.7300     6.9790 N.pl3        1 FAD752   0.0000
    14 C8A         17.9920    12.5650     6.2650 C.2          1 FAD752   0.0000
    15 N7A         18.1660    12.6220     4.9060 N.2          1 FAD752   0.0000
    16 C5A         18.0180    14.0070     4.7520 C.ar         1 FAD752   0.0000
    17 C6A         18.0640    14.8780     3.6060 C.ar         1 FAD752   0.0000
    18 N6A         18.2800    14.4230     2.3830 N.pl3        1 FAD752   0.0000
    19 N1A         17.8740    16.2650     3.7740 N.ar         1 FAD752   0.0000
    20 C2A         17.6410    16.8210     5.0280 C.ar         1 FAD752   0.0000
    21 N3A         17.5740    16.1020     6.1910 N.ar         1 FAD752   0.0000
    22 C4A         17.7700    14.6870     5.9990 C.ar         1 FAD752   0.0000
    23 N1          15.4650     2.5430     8.6130 N.2          1 FAD752   0.0000
    24 C2          15.9570     1.5970     7.7530 C.2          1 FAD752   0.0000
    25 O2          16.8060     1.9190     6.9380 O.2          1 FAD752   0.0000
    26 N3          15.4230     0.2910     7.8880 N.pl3        1 FAD752   0.0000
    27 C4          14.4260    -0.1410     8.8100 C.2          1 FAD752   0.0000
    28 O4          14.0800    -1.3120     8.7870 O.2          1 FAD752   0.0000
    29 C4X         13.9060     0.9240     9.7140 C.2          1 FAD752   0.0000
    30 N5          12.9070     0.5740    10.6440 N.2          1 FAD752   0.0000
    31 C5X         12.4210     1.6100    11.4960 C.ar         1 FAD752   0.0000
    32 C6          11.3700     1.2450    12.4610 C.ar         1 FAD752   0.0000
    33 C7          10.7800     2.1930    13.3800 C.ar         1 FAD752   0.0000
    34 C7M          9.6850     1.7620    14.3610 C.3          1 FAD752   0.0000
    35 C8          11.3020     3.6500    13.3190 C.ar         1 FAD752   0.0000
    36 C8M         10.7650     4.7860    14.2310 C.3          1 FAD752   0.0000
    37 C9          12.3040     4.0000    12.4130 C.ar         1 FAD752   0.0000
    38 C9A         12.8900     3.0350    11.4920 C.ar         1 FAD752   0.0000
    39 N10         13.9630     3.3410    10.4970 N.pl3        1 FAD752   0.0000
    40 C10         14.4780     2.2610     9.5700 C.2          1 FAD752   0.0000
    41 C1'         14.6070     4.6760    10.3340 C.3          1 FAD752   0.0000
    42 C2'         15.7610     4.3810    11.4450 C.3          1 FAD752   0.0000
    43 O2'         15.2880     4.3460    12.8320 O.3          1 FAD752   0.0000
    44 C3'         16.9180     5.4720    11.3720 C.3          1 FAD752   0.0000
    45 O3'         16.2760     6.7260    11.5920 O.3          1 FAD752   0.0000
    46 C4'         17.6650     5.6870    10.0310 C.3          1 FAD752   0.0000
    47 O4'         18.3240     4.4640     9.7890 O.3          1 FAD752   0.0000
    48 C5'         18.7670     6.7730    10.1020 C.3          1 FAD752   0.0000
    49 O5'         19.4250     6.8400    11.3170 O.3          1 FAD752   0.0000
    50 P           20.8250     7.5200    11.4390 P.3          1 FAD752   0.0000
    51 O1P         21.2030     7.4370    12.8680 O.co2        1 FAD752   0.0000
    52 O2P         21.8010     6.8710    10.5030 O.co2        1 FAD752  -1.0000
    53 O3P         20.4560     8.9510    10.9990 O.3          1 FAD752   0.0000
    54 H5B1        17.7981    10.5988    10.9952 H            1 FAD752   0.0000
    55 H5B2        18.3492    10.6640     9.4594 H            1 FAD752   0.0000
    56 H4B         17.7746    13.0021    11.0477 H            1 FAD752   0.0000
    57 H3B         16.1329    11.7434     9.0482 H            1 FAD752   0.0000
    58 H5          14.4127    12.3827    10.4104 H            1 FAD752   0.0000
    59 H2B         15.5004    13.6917     8.1825 H            1 FAD752   0.0000
    60 H7          15.5758    15.7194     9.2396 H            1 FAD752   0.0000
    61 H1B         17.7649    14.9937     8.5826 H            1 FAD752   0.0000
    62 H8A         18.0359    11.6860     6.7398 H            1 FAD752   0.0000
    63 H6A1        18.3053    15.0576     1.6106 H            1 FAD752   0.0000
    64 H6A2        18.4180    13.4443     2.2307 H            1 FAD752   0.0000
    65 H2A         17.5141    17.8114     5.0834 H            1 FAD752   0.0000
    66 H13         15.7861    -0.4042     7.2676 H            1 FAD752   0.0000
    67 H14         11.0496     0.2980    12.4817 H            1 FAD752   0.0000
    68 H7M1         9.4022     2.5477    14.9111 H            1 FAD752   0.0000
    69 H7M2         8.8993     1.4121    13.8508 H            1 FAD752   0.0000
    70 H7M3        10.0388     1.0448    14.9614 H            1 FAD752   0.0000
    71 H8M1        11.2437     5.6380    14.0190 H            1 FAD752   0.0000
    72 H8M2         9.7850     4.9058    14.0722 H            1 FAD752   0.0000
    73 H8M3        10.9205     4.5458    15.1892 H            1 FAD752   0.0000
    74 H21         12.6308     4.9449    12.3953 H            1 FAD752   0.0000
    75 H1'1        14.0063     5.4360    10.5823 H            1 FAD752   0.0000
    76 H1'2        14.9735     4.8270     9.4159 H            1 FAD752   0.0000
    77 H2'         16.1660     3.4907    11.2370 H            1 FAD752   0.0000
    78 H25         15.0192     3.4124    13.0691 H            1 FAD752   0.0000
    79 H3'         17.5818     5.3042    12.1009 H            1 FAD752   0.0000
    80 H27         16.6645     7.1615    12.4040 H            1 FAD752   0.0000
    81 H4'         17.0178     5.8896     9.2961 H            1 FAD752   0.0000
    82 H29         18.4094     4.3208     8.8030 H            1 FAD752   0.0000
    83 H5'1        18.3426     7.6613     9.9266 H            1 FAD752   0.0000
    84 H5'2        19.4427     6.5801     9.3905 H            1 FAD752   0.0000
@<TRIPOS>BOND
     1    1    2      ar
     2    1    3      ar
     3    1    4       1
     4    1   53       1
     5    4    5       1
     6    5    6       1
     7    6    7       1
     8    6    8       1
     9    7   12       1
    10    8    9       1
    11    8   10       1
    12   10   11       1
    13   10   12       1
    14   12   13       1
    15   13   14       1
    16   13   22       1
    17   14   15       2
    18   15   16       1
    19   16   17      ar
    20   16   22      ar
    21   17   18       1
    22   17   19      ar
    23   19   20      ar
    24   20   21      ar
    25   21   22      ar
    26   23   24       1
    27   23   40       2
    28   24   25       2
    29   24   26       1
    30   26   27       1
    31   27   28       2
    32   27   29       1
    33   29   30       2
    34   29   40       1
    35   30   31       1
    36   31   32      ar
    37   31   38      ar
    38   32   33      ar
    39   33   34       1
    40   33   35      ar
    41   35   36       1
    42   35   37      ar
    43   37   38      ar
    44   38   39       1
    45   39   40       1
    46   39   41       1
    47   41   42       1
    48   42   43       1
    49   42   44       1
    50   44   45       1
    51   44   46       1
    52   46   47       1
    53   46   48       1
    54   48   49       1
    55   49   50       1
    56   50   51      ar
    57   50   52      ar
    58   50   53       1
    59   48   84       1
    60    5   54       1
    61    5   55       1
    62    6   56       1
    63    8   57       1
    64    9   58       1
    65   10   59       1
    66   11   60       1
    67   12   61       1
    68   14   62       1
    69   18   63       1
    70   18   64       1
    71   20   65       1
    72   26   66       1
    73   32   67       1
    74   34   68       1
    75   34   69       1
    76   34   70       1
    77   36   71       1
    78   36   72       1
    79   36   73       1
    80   37   74       1
    81   41   75       1
    82   41   76       1
    83   42   77       1
    84   43   78       1
    85   44   79       1
    86   45   80       1
    87   46   81       1
    88   47   82       1
    89   48   83       1
@<TRIPOS>SUBSTRUCTURE
     1 FAD752      1 GROUP             4 A     FAD     0 **** FAD A 752
