@<TRIPOS>MOLECULE
3g5s_FAD_1_ligand
   84    89     1     0     0
SMALL
NO_CHARGES


@<TRIPOS>ATOM
     1 PA          26.8480    47.4300    38.5010 P.3          1 FAD444   0.0000
     2 O1A         27.1650    47.1980    37.0520 O.co2        1 FAD444   0.0000
     3 O2A         27.5770    48.5210    39.2220 O.co2        1 FAD444  -1.0000
     4 O5B         27.0460    46.0910    39.3480 O.3          1 FAD444   0.0000
     5 C5B         26.5550    44.8460    38.8910 C.3          1 FAD444   0.0000
     6 C4B         27.5500    43.7850    39.3190 C.3          1 FAD444   0.0000
     7 O4B         26.9990    42.5020    39.0740 O.3          1 FAD444   0.0000
     8 C3B         28.8450    43.8610    38.5130 C.3          1 FAD444   0.0000
     9 O3B         29.9690    43.9030    39.3710 O.3          1 FAD444   0.0000
    10 C2B         28.8300    42.5930    37.6590 C.3          1 FAD444   0.0000
    11 O2B         30.1050    42.0480    37.3870 O.3          1 FAD444   0.0000
    12 C1B         28.0060    41.6530    38.5180 C.3          1 FAD444   0.0000
    13 N9A         27.2770    40.5670    37.8460 N.pl3        1 FAD444   0.0000
    14 C8A         26.4800    40.6500    36.7380 C.2          1 FAD444   0.0000
    15 N7A         25.9180    39.4430    36.5190 N.2          1 FAD444   0.0000
    16 C5A         26.3480    38.5960    37.4920 C.ar         1 FAD444   0.0000
    17 C6A         26.1040    37.2580    37.7680 C.ar         1 FAD444   0.0000
    18 N6A         25.1630    36.5540    37.1250 N.pl3        1 FAD444   0.0000
    19 N1A         26.7060    36.6960    38.8610 N.ar         1 FAD444   0.0000
    20 C2A         27.5570    37.4180    39.6640 C.ar         1 FAD444   0.0000
    21 N3A         27.8060    38.7460    39.4030 N.ar         1 FAD444   0.0000
    22 C4A         27.2050    39.2970    38.3280 C.ar         1 FAD444   0.0000
    23 N1          25.7200    55.8960    35.8660 N.2          1 FAD444   0.0000
    24 C2          25.9420    57.1890    36.2660 C.2          1 FAD444   0.0000
    25 O2          25.3550    57.6500    37.2430 O.2          1 FAD444   0.0000
    26 N3          26.8360    57.9740    35.5630 N.pl3        1 FAD444   0.0000
    27 C4          27.5290    57.4990    34.4620 C.2          1 FAD444   0.0000
    28 O4          28.3270    58.2260    33.8580 O.2          1 FAD444   0.0000
    29 C4X         27.2960    56.1820    34.0670 C.2          1 FAD444   0.0000
    30 N5          27.9470    55.6520    32.9760 N.2          1 FAD444   0.0000
    31 C5X         27.7110    54.3440    32.6050 C.ar         1 FAD444   0.0000
    32 C6          28.3840    53.8180    31.5070 C.ar         1 FAD444   0.0000
    33 C7          28.1580    52.5090    31.1050 C.ar         1 FAD444   0.0000
    34 C7M         28.8880    51.9460    29.9170 C.3          1 FAD444   0.0000
    35 C8          27.2580    51.7210    31.8150 C.ar         1 FAD444   0.0000
    36 C8M         27.0070    50.3020    31.3930 C.3          1 FAD444   0.0000
    37 C9          26.5850    52.2440    32.9170 C.ar         1 FAD444   0.0000
    38 C9A         26.8050    53.5590    33.3190 C.ar         1 FAD444   0.0000
    39 N10         26.1210    54.0890    34.4060 N.pl3        1 FAD444   0.0000
    40 C10         26.3890    55.3940    34.7740 C.2          1 FAD444   0.0000
    41 C1'         24.7520    53.5480    34.7510 C.3          1 FAD444   0.0000
    42 C2'         24.6400    52.9740    36.1740 C.3          1 FAD444   0.0000
    43 O2'         24.3770    53.9760    37.1420 O.3          1 FAD444   0.0000
    44 C3'         25.8630    52.1430    36.5610 C.3          1 FAD444   0.0000
    45 O3'         25.8940    51.0340    35.6850 O.3          1 FAD444   0.0000
    46 C4'         25.8280    51.6490    38.0060 C.3          1 FAD444   0.0000
    47 O4'         27.0950    51.0970    38.3030 O.3          1 FAD444   0.0000
    48 C5'         24.7100    50.6410    38.2450 C.3          1 FAD444   0.0000
    49 O5'         24.8910    50.0200    39.4990 O.3          1 FAD444   0.0000
    50 P           24.4370    48.4980    39.6920 P.3          1 FAD444   0.0000
    51 O1P         22.9980    48.3230    39.3260 O.co2        1 FAD444   0.0000
    52 O2P         24.8530    48.0980    41.0690 O.co2        1 FAD444  -1.0000
    53 O3P         25.2670    47.6920    38.5780 O.3          1 FAD444   0.0000
    54 H5B1        26.4723    44.8556    37.8945 H            1 FAD444   0.0000
    55 H5B2        25.6606    44.6605    39.2980 H            1 FAD444   0.0000
    56 H4B         27.7523    43.8852    40.2932 H            1 FAD444   0.0000
    57 H3B         28.8341    44.6694    37.9245 H            1 FAD444   0.0000
    58 H5          29.9886    43.0777    39.9354 H            1 FAD444   0.0000
    59 H2B         28.3502    42.7715    36.8000 H            1 FAD444   0.0000
    60 H7          30.3479    41.3942    38.1037 H            1 FAD444   0.0000
    61 H1B         28.5743    41.2772    39.2500 H            1 FAD444   0.0000
    62 H8A         26.3374    41.4691    36.1824 H            1 FAD444   0.0000
    63 H6A1        25.0165    35.5911    37.3519 H            1 FAD444   0.0000
    64 H6A2        24.6070    36.9913    36.4181 H            1 FAD444   0.0000
    65 H2A         27.9986    36.9745    40.4440 H            1 FAD444   0.0000
    66 H13         26.9877    58.9170    35.8593 H            1 FAD444   0.0000
    67 H14         29.0348    54.3868    31.0041 H            1 FAD444   0.0000
    68 H7M1        28.6059    50.9978    29.7711 H            1 FAD444   0.0000
    69 H7M2        28.6703    52.4873    29.1048 H            1 FAD444   0.0000
    70 H7M3        29.8732    51.9785    30.0851 H            1 FAD444   0.0000
    71 H8M1        26.3379    49.8847    32.0080 H            1 FAD444   0.0000
    72 H8M2        26.6531    50.2900    30.4578 H            1 FAD444   0.0000
    73 H8M3        27.8628    49.7862    31.4322 H            1 FAD444   0.0000
    74 H21         25.9397    51.6714    33.4226 H            1 FAD444   0.0000
    75 H1'1        24.5294    52.8211    34.1014 H            1 FAD444   0.0000
    76 H1'2        24.0891    54.2912    34.6597 H            1 FAD444   0.0000
    77 H2'         23.8551    52.3544    36.1765 H            1 FAD444   0.0000
    78 H25         24.7802    54.8413    36.8441 H            1 FAD444   0.0000
    79 H3'         26.6877    52.6915    36.4231 H            1 FAD444   0.0000
    80 H27         26.6827    50.4591    35.9028 H            1 FAD444   0.0000
    81 H4'         25.6777    52.4354    38.6051 H            1 FAD444   0.0000
    82 H29         26.9889    50.1347    38.5534 H            1 FAD444   0.0000
    83 H5'1        24.7279    49.9475    37.5248 H            1 FAD444   0.0000
    84 H5'2        23.8284    51.1128    38.2317 H            1 FAD444   0.0000
@<TRIPOS>BOND
     1    1    2      ar
     2    1    3      ar
     3    1    4       1
     4    1   53       1
     5    4    5       1
     6    5    6       1
     7    6    7       1
     8    6    8       1
     9    7   12       1
    10    8    9       1
    11    8   10       1
    12   10   11       1
    13   10   12       1
    14   12   13       1
    15   13   14       1
    16   13   22       1
    17   14   15       2
    18   15   16       1
    19   16   17      ar
    20   16   22      ar
    21   17   18       1
    22   17   19      ar
    23   19   20      ar
    24   20   21      ar
    25   21   22      ar
    26   23   24       1
    27   23   40       2
    28   24   25       2
    29   24   26       1
    30   26   27       1
    31   27   28       2
    32   27   29       1
    33   29   30       2
    34   29   40       1
    35   30   31       1
    36   31   32      ar
    37   31   38      ar
    38   32   33      ar
    39   33   34       1
    40   33   35      ar
    41   35   36       1
    42   35   37      ar
    43   37   38      ar
    44   38   39       1
    45   39   40       1
    46   39   41       1
    47   41   42       1
    48   42   43       1
    49   42   44       1
    50   44   45       1
    51   44   46       1
    52   46   47       1
    53   46   48       1
    54   48   49       1
    55   49   50       1
    56   50   51      ar
    57   50   52      ar
    58   50   53       1
    59   48   84       1
    60    5   54       1
    61    5   55       1
    62    6   56       1
    63    8   57       1
    64    9   58       1
    65   10   59       1
    66   11   60       1
    67   12   61       1
    68   14   62       1
    69   18   63       1
    70   18   64       1
    71   20   65       1
    72   26   66       1
    73   32   67       1
    74   34   68       1
    75   34   69       1
    76   34   70       1
    77   36   71       1
    78   36   72       1
    79   36   73       1
    80   37   74       1
    81   41   75       1
    82   41   76       1
    83   42   77       1
    84   43   78       1
    85   44   79       1
    86   45   80       1
    87   46   81       1
    88   47   82       1
    89   48   83       1
@<TRIPOS>SUBSTRUCTURE
     1 FAD444      1 GROUP             4 A     FAD     0 **** FAD A 444
