@<TRIPOS>MOLECULE
3qyy_C2E_2_ligand
   70    76     1     0     0
SMALL
NO_CHARGES


@<TRIPOS>ATOM
     1 P1          78.2130    33.9380    46.7990 P.3          1 C2E486   0.0000
     2 O2P         77.8640    34.6450    48.0850 O.2          1 C2E486   0.0000
     3 O1P         79.6590    33.5770    46.6340 O.3          1 C2E486   0.0000
     4 O5'         77.3930    32.6010    46.6480 O.3          1 C2E486   0.0000
     5 C5'         77.5790    31.7780    45.4780 C.3          1 C2E486   0.0000
     6 C4'         76.6310    30.5960    45.6100 C.3          1 C2E486   0.0000
     7 O4'         76.7330    29.8700    46.8180 O.3          1 C2E486   0.0000
     8 C3'         75.1710    31.0230    45.5190 C.3          1 C2E486   0.0000
     9 O3'         74.7640    31.2030    44.1530 O.3          1 C2E486   0.0000
    10 C2'         74.5020    29.9020    46.2550 C.3          1 C2E486   0.0000
    11 O2'         74.1930    28.8610    45.3140 O.3          1 C2E486   0.0000
    12 C1'         75.4820    29.4130    47.3140 C.3          1 C2E486   0.0000
    13 N9          75.2020    30.0780    48.6060 N.pl3        1 C2E486   0.0000
    14 C8          75.9700    31.0040    49.2270 C.2          1 C2E486   0.0000
    15 N7          75.4250    31.3930    50.3970 N.2          1 C2E486   0.0000
    16 C5          74.2930    30.7090    50.5430 C.ar         1 C2E486   0.0000
    17 C6          73.2240    30.6250    51.5700 C.ar         1 C2E486   0.0000
    18 O6          73.2870    31.3260    52.6120 O.3          1 C2E486   0.0000
    19 N1          72.1910    29.7720    51.3600 N.ar         1 C2E486   0.0000
    20 C2          72.1010    28.9950    50.2440 C.ar         1 C2E486   0.0000
    21 N2          71.0520    28.1660    50.0950 N.pl3        1 C2E486   0.0000
    22 N3          73.0560    29.0250    49.2540 N.ar         1 C2E486   0.0000
    23 C4          74.1470    29.8470    49.3570 C.ar         1 C2E486   0.0000
    24 P11         73.6780    32.3760    43.9600 P.3          1 C2E486   0.0000
    25 O21         72.5000    32.1170    44.8370 O.3          1 C2E486   0.0000
    26 O11         73.3580    32.3500    42.5070 O.2          1 C2E486   0.0000
    27 O5A         74.3260    33.7690    44.3330 O.3          1 C2E486   0.0000
    28 C5A         75.4550    34.2210    43.5870 C.3          1 C2E486   0.0000
    29 C4A         75.9440    35.5320    44.1340 C.3          1 C2E486   0.0000
    30 O4A         74.9310    36.5730    44.2140 O.3          1 C2E486   0.0000
    31 C3A         76.5190    35.4120    45.5410 C.3          1 C2E486   0.0000
    32 O3A         77.8680    34.8950    45.5370 O.3          1 C2E486   0.0000
    33 C2A         76.4170    36.8230    46.0270 C.3          1 C2E486   0.0000
    34 O2A         77.6220    37.5160    45.6530 O.3          1 C2E486   0.0000
    35 C1A         75.1930    37.4190    45.3500 C.3          1 C2E486   0.0000
    36 N91         74.0500    37.4910    46.3030 N.pl3        1 C2E486   0.0000
    37 C81         73.0800    36.5700    46.5350 C.2          1 C2E486   0.0000
    38 N71         72.2080    36.9990    47.4780 N.2          1 C2E486   0.0000
    39 C51         72.6120    38.2180    47.8690 C.2          1 C2E486   0.0000
    40 C61         72.1620    39.2630    48.8330 C.2          1 C2E486   0.0000
    41 O61         71.1450    39.1110    49.5460 O.2          1 C2E486   0.0000
    42 N11         72.8870    40.4050    48.9270 N.pl3        1 C2E486   0.0000
    43 C21         74.0120    40.6350    48.1750 C.2          1 C2E486   0.0000
    44 N21         74.6850    41.8010    48.3280 N.pl3        1 C2E486   0.0000
    45 N31         74.4750    39.7230    47.2740 N.2          1 C2E486   0.0000
    46 C41         73.8270    38.5240    47.0860 C.2          1 C2E486   0.0000
    47 H5'1        78.5246    31.4562    45.4314 H            1 C2E486   0.0000
    48 H5'2        77.3636    32.3004    44.6530 H            1 C2E486   0.0000
    49 H4'         76.8159    29.9665    44.8553 H            1 C2E486   0.0000
    50 H3'         75.0408    31.8775    46.0218 H            1 C2E486   0.0000
    51 H2'         73.6635    30.2303    46.6900 H            1 C2E486   0.0000
    52 H6          73.7453    28.1038    45.7897 H            1 C2E486   0.0000
    53 H1'         75.4626    28.4170    47.4012 H            1 C2E486   0.0000
    54 H8          76.8329    31.3552    48.8635 H            1 C2E486   0.0000
    55 H9          70.9795    27.5930    49.2787 H            1 C2E486   0.0000
    56 H10         70.3447    28.1228    50.8006 H            1 C2E486   0.0000
    57 H11         72.0882    31.2394    44.5915 H            1 C2E486   0.0000
    58 H5A1        75.1927    34.3394    42.6293 H            1 C2E486   0.0000
    59 H5A2        76.1868    33.5424    43.6508 H            1 C2E486   0.0000
    60 H4A         76.6728    35.8607    43.5333 H            1 C2E486   0.0000
    61 H3A         75.9330    34.8211    46.0955 H            1 C2E486   0.0000
    62 H2A         76.3040    36.8386    47.0205 H            1 C2E486   0.0000
    63 H17         77.9853    37.1212    44.8091 H            1 C2E486   0.0000
    64 H1A         75.4115    38.3407    45.0294 H            1 C2E486   0.0000
    65 H19         73.0174    35.6874    46.0690 H            1 C2E486   0.0000
    66 H20         72.5895    41.1094    49.5714 H            1 C2E486   0.0000
    67 H21         75.5059    41.9794    47.7855 H            1 C2E486   0.0000
    68 H22         74.3608    42.4831    48.9834 H            1 C2E486   0.0000
    69 H1P         80.2262    34.2429    47.1186 H            1 C2E486   0.0000
    70 H24         72.5639    31.2650    53.3001 H            1 C2E486   0.0000
@<TRIPOS>BOND
     1    1    2       2
     2    1    3       1
     3    1    4       1
     4    1   32       1
     5    4    5       1
     6    5    6       1
     7    6    7       1
     8    6    8       1
     9    7   12       1
    10    8    9       1
    11    8   10       1
    12    9   24       1
    13   10   11       1
    14   10   12       1
    15   12   13       1
    16   13   14       1
    17   13   23       1
    18   14   15       2
    19   15   16       1
    20   16   17      ar
    21   16   23      ar
    22   17   18       1
    23   17   19      ar
    24   19   20      ar
    25   20   21       1
    26   20   22      ar
    27   22   23      ar
    28   24   25       1
    29   24   26       2
    30   24   27       1
    31   27   28       1
    32   28   29       1
    33   29   30       1
    34   29   31       1
    35   30   35       1
    36   31   32       1
    37   31   33       1
    38   33   34       1
    39   33   35       1
    40   35   36       1
    41   36   37       1
    42   36   46       1
    43   37   38       2
    44   38   39       1
    45   39   40       1
    46   39   46       2
    47   40   41       2
    48   40   42       1
    49   42   43       1
    50   43   44       1
    51   43   45       2
    52   45   46       1
    53   44   68       1
    54    5   47       1
    55    5   48       1
    56    6   49       1
    57    8   50       1
    58   10   51       1
    59   11   52       1
    60   12   53       1
    61   14   54       1
    62   18   70       1
    63   21   55       1
    64   21   56       1
    65   25   57       1
    66   28   58       1
    67   28   59       1
    68   29   60       1
    69   31   61       1
    70   33   62       1
    71   34   63       1
    72   35   64       1
    73   37   65       1
    74   42   66       1
    75   44   67       1
    76    3   69       1
@<TRIPOS>SUBSTRUCTURE
     1 C2E486      1 GROUP             4 B     C2E     0 **** C2E B 486
