@<TRIPOS>MOLECULE
2dza_PAB_1_ligand
   16    16     1     0     0
SMALL
NO_CHARGES


@<TRIPOS>ATOM
     1 C1'         -3.8290    43.2720    -0.4210 C.2          1 PAB1301   0.0000
     2 O1'         -3.9630    42.5270     0.5480 O.co2        1 PAB1301   0.0000
     3 O2'         -4.4470    44.3290    -0.3170 O.co2        1 PAB1301  -1.0000
     4 C1          -3.0170    42.9660    -1.5810 C.ar         1 PAB1301   0.0000
     5 C2          -2.3030    41.7380    -1.7190 C.ar         1 PAB1301   0.0000
     6 C3          -1.5220    41.4520    -2.8510 C.ar         1 PAB1301   0.0000
     7 C4          -1.4440    42.3980    -3.9030 C.ar         1 PAB1301   0.0000
     8 C5          -2.1400    43.6200    -3.7990 C.ar         1 PAB1301   0.0000
     9 C6          -2.9230    43.8950    -2.6580 C.ar         1 PAB1301   0.0000
    10 N4          -0.7260    42.1950    -5.0040 N.pl3        1 PAB1301   0.0000
    11 H1          -2.3605    41.0596    -0.9866 H            1 PAB1301   0.0000
    12 H2          -1.0245    40.5868    -2.9140 H            1 PAB1301   0.0000
    13 H3          -2.0784    44.2933    -4.5358 H            1 PAB1301   0.0000
    14 H4          -3.4224    44.7597    -2.6037 H            1 PAB1301   0.0000
    15 H5          -0.7012    42.8923    -5.7204 H            1 PAB1301   0.0000
    16 H6          -0.2110    41.3451    -5.1154 H            1 PAB1301   0.0000
@<TRIPOS>BOND
     1    1    2      ar
     2    1    3      ar
     3    1    4       1
     4    4    5      ar
     5    4    9      ar
     6    5    6      ar
     7    6    7      ar
     8    7    8      ar
     9    7   10       1
    10    8    9      ar
    11   10   16       1
    12    5   11       1
    13    6   12       1
    14    8   13       1
    15    9   14       1
    16   10   15       1
@<TRIPOS>SUBSTRUCTURE
     1 PAB1301     1 GROUP             4 B     PAB     0 **** PAB B1301
