@<TRIPOS>MOLECULE
3ll9_ADP_2_ligand
   39    41     1     0     0
SMALL
NO_CHARGES


@<TRIPOS>ATOM
     1 PB          22.9530   -30.7490     6.0230 P.3          1 ADP268   0.0000
     2 O1B         23.4520   -30.3440     4.6420 O.co2        1 ADP268   0.0000
     3 O2B         23.6670   -30.0100     7.1760 O.co2        1 ADP268  -1.0000
     4 O3B         21.4410   -30.8200     6.1310 O.co2        1 ADP268  -1.0000
     5 PA          22.8250   -33.4140     7.1910 P.3          1 ADP268   0.0000
     6 O1A         21.3520   -33.1960     7.4120 O.co2        1 ADP268   0.0000
     7 O2A         23.7180   -33.5770     8.3900 O.co2        1 ADP268  -1.0000
     8 O3A         23.4420   -32.2900     6.1690 O.3          1 ADP268   0.0000
     9 O5'         22.9780   -34.6560     6.1760 O.3          1 ADP268   0.0000
    10 C5'         24.2870   -34.9860     5.7020 C.3          1 ADP268   0.0000
    11 C4'         24.7740   -36.2210     6.4540 C.3          1 ADP268   0.0000
    12 O4'         23.9670   -37.3930     6.2420 O.3          1 ADP268   0.0000
    13 C3'         26.1420   -36.6320     5.9760 C.3          1 ADP268   0.0000
    14 O3'         27.1180   -35.9770     6.7660 O.3          1 ADP268   0.0000
    15 C2'         26.1970   -38.1370     6.1990 C.3          1 ADP268   0.0000
    16 O2'         26.9460   -38.3970     7.3820 O.3          1 ADP268   0.0000
    17 C1'         24.7740   -38.5910     6.4520 C.3          1 ADP268   0.0000
    18 N9          24.2760   -39.6390     5.5270 N.pl3        1 ADP268   0.0000
    19 C8          23.4660   -40.6310     5.9300 C.2          1 ADP268   0.0000
    20 N7          23.1310   -41.3920     4.8650 N.2          1 ADP268   0.0000
    21 C5          23.7290   -40.8520     3.7740 C.ar         1 ADP268   0.0000
    22 C6          23.7860   -41.2360     2.3660 C.ar         1 ADP268   0.0000
    23 N6          23.0600   -42.3210     2.0130 N.pl3        1 ADP268   0.0000
    24 N1          24.5500   -40.5170     1.5240 N.ar         1 ADP268   0.0000
    25 C2          25.2210   -39.3980     1.9460 C.ar         1 ADP268   0.0000
    26 N3          25.2450   -39.0190     3.2490 N.ar         1 ADP268   0.0000
    27 C4          24.5140   -39.7140     4.1940 C.ar         1 ADP268   0.0000
    28 H5'1        24.9095   -34.2214     5.8692 H            1 ADP268   0.0000
    29 H5'2        24.2524   -35.1794     4.7215 H            1 ADP268   0.0000
    30 H4'         24.8126   -36.0186     7.4325 H            1 ADP268   0.0000
    31 H3'         26.2615   -36.4114     5.0080 H            1 ADP268   0.0000
    32 H5          27.3531   -35.1004     6.3462 H            1 ADP268   0.0000
    33 H2'         26.5922   -38.6062     5.4093 H            1 ADP268   0.0000
    34 H7          26.9891   -39.3836     7.5391 H            1 ADP268   0.0000
    35 H1'         24.6803   -38.9014     7.3980 H            1 ADP268   0.0000
    36 H9          23.1592   -40.7826     6.8696 H            1 ADP268   0.0000
    37 H10         23.0581   -42.6339     1.0632 H            1 ADP268   0.0000
    38 H11         22.5251   -42.8104     2.7018 H            1 ADP268   0.0000
    39 H12         25.7085   -38.8432     1.2718 H            1 ADP268   0.0000
@<TRIPOS>BOND
     1    1    2      ar
     2    1    3      ar
     3    1    4      ar
     4    1    8       1
     5    5    6      ar
     6    5    7      ar
     7    5    8       1
     8    5    9       1
     9    9   10       1
    10   10   11       1
    11   11   12       1
    12   11   13       1
    13   12   17       1
    14   13   14       1
    15   13   15       1
    16   15   16       1
    17   15   17       1
    18   17   18       1
    19   18   19       1
    20   18   27       1
    21   19   20       2
    22   20   21       1
    23   21   22      ar
    24   21   27      ar
    25   22   23       1
    26   22   24      ar
    27   24   25      ar
    28   25   26      ar
    29   26   27      ar
    30   25   39       1
    31   23   38       1
    32   23   37       1
    33   10   28       1
    34   10   29       1
    35   11   30       1
    36   13   31       1
    37   14   32       1
    38   15   33       1
    39   16   34       1
    40   17   35       1
    41   19   36       1
@<TRIPOS>SUBSTRUCTURE
     1 ADP268      1 GROUP             4 B     ADP     0 **** ADP B 268
