@<TRIPOS>MOLECULE
4x9m_FAD_1_ligand
   84    89     1     0     0
SMALL
NO_CHARGES


@<TRIPOS>ATOM
     1 PA          15.3320   -25.2410    51.2360 P.3          1 FAD401   0.0000
     2 O1A         15.6370   -23.8310    51.6550 O.co2        1 FAD401   0.0000
     3 O2A         13.9190   -25.6540    50.9440 O.co2        1 FAD401  -1.0000
     4 O5B         15.8690   -26.2960    52.3450 O.3          1 FAD401   0.0000
     5 C5B         17.1860   -26.2440    52.8360 C.3          1 FAD401   0.0000
     6 C4B         17.2210   -26.8280    54.2340 C.3          1 FAD401   0.0000
     7 O4B         18.4660   -26.7900    54.9570 O.3          1 FAD401   0.0000
     8 C3B         16.2740   -26.0580    55.1530 C.3          1 FAD401   0.0000
     9 O3B         14.9100   -26.3700    55.2360 O.3          1 FAD401   0.0000
    10 C2B         17.0510   -25.4390    56.3020 C.3          1 FAD401   0.0000
    11 O2B         16.3240   -25.4030    57.4850 O.3          1 FAD401   0.0000
    12 C1B         18.1930   -26.4460    56.3390 C.3          1 FAD401   0.0000
    13 N9A         19.4060   -25.9300    56.9280 N.pl3        1 FAD401   0.0000
    14 C8A         20.0890   -24.7850    56.6350 C.2          1 FAD401   0.0000
    15 N7A         21.2380   -24.7400    57.3730 N.2          1 FAD401   0.0000
    16 C5A         21.2830   -25.8620    58.1160 C.ar         1 FAD401   0.0000
    17 C6A         22.1740   -26.3580    59.0420 C.ar         1 FAD401   0.0000
    18 N6A         23.3670   -25.8150    59.2710 N.pl3        1 FAD401   0.0000
    19 N1A         21.9470   -27.5770    59.5820 N.ar         1 FAD401   0.0000
    20 C2A         20.8210   -28.3110    59.3050 C.ar         1 FAD401   0.0000
    21 N3A         19.9450   -27.8180    58.4220 N.ar         1 FAD401   0.0000
    22 C4A         20.1670   -26.6240    57.8240 C.ar         1 FAD401   0.0000
    23 N1          11.1740   -23.8790    41.4440 N.2          1 FAD401   0.0000
    24 C2          10.3590   -24.4830    40.5030 C.2          1 FAD401   0.0000
    25 O2          10.7280   -25.4520    39.8560 O.2          1 FAD401   0.0000
    26 N3           9.0580   -24.1010    40.3480 N.pl3        1 FAD401   0.0000
    27 C4           8.5010   -23.0320    40.9710 C.2          1 FAD401   0.0000
    28 O4           7.2750   -22.7020    40.7510 O.2          1 FAD401   0.0000
    29 C4X          9.3420   -22.3550    41.8060 C.2          1 FAD401   0.0000
    30 N5           8.9150   -21.1640    42.3510 N.2          1 FAD401   0.0000
    31 C5X          9.7050   -20.4650    43.2550 C.ar         1 FAD401   0.0000
    32 C6           9.2180   -19.2970    43.8310 C.ar         1 FAD401   0.0000
    33 C7           9.9000   -18.6560    44.8580 C.ar         1 FAD401   0.0000
    34 C7M          9.3570   -17.4010    45.4920 C.3          1 FAD401   0.0000
    35 C8          11.1110   -19.1680    45.2820 C.ar         1 FAD401   0.0000
    36 C8M         11.9020   -18.4630    46.3460 C.3          1 FAD401   0.0000
    37 C9          11.6060   -20.3370    44.6950 C.ar         1 FAD401   0.0000
    38 C9A         10.9050   -21.0150    43.6760 C.ar         1 FAD401   0.0000
    39 N10         11.3970   -22.1720    43.0350 N.pl3        1 FAD401   0.0000
    40 C10         10.6310   -22.8270    42.1100 C.2          1 FAD401   0.0000
    41 C1'         12.7170   -22.7880    43.3730 C.3          1 FAD401   0.0000
    42 C2'         12.4790   -23.7850    44.5320 C.3          1 FAD401   0.0000
    43 O2'         11.5070   -23.3500    45.4520 O.3          1 FAD401   0.0000
    44 C3'         13.7880   -24.0570    45.2500 C.3          1 FAD401   0.0000
    45 O3'         14.6540   -24.4180    44.2170 O.3          1 FAD401   0.0000
    46 C4'         13.8310   -25.2200    46.2320 C.3          1 FAD401   0.0000
    47 O4'         12.7910   -25.1590    47.1800 O.3          1 FAD401   0.0000
    48 C5'         15.1430   -25.1860    46.9900 C.3          1 FAD401   0.0000
    49 O5'         15.0980   -26.2940    47.8650 O.3          1 FAD401   0.0000
    50 P           16.2800   -26.6270    48.8710 P.3          1 FAD401   0.0000
    51 O1P         16.0770   -27.9530    49.4990 O.co2        1 FAD401   0.0000
    52 O2P         17.6070   -26.5030    48.2170 O.co2        1 FAD401  -1.0000
    53 O3P         16.2560   -25.4310    49.9450 O.3          1 FAD401   0.0000
    54 H5B1        17.4955   -25.2935    52.8629 H            1 FAD401   0.0000
    55 H5B2        17.7871   -26.7734    52.2374 H            1 FAD401   0.0000
    56 H4B         16.9122   -27.7780    54.1870 H            1 FAD401   0.0000
    57 H3B         16.1873   -25.2340    54.5930 H            1 FAD401   0.0000
    58 H5          14.8024   -27.3156    55.5430 H            1 FAD401   0.0000
    59 H2B         17.3846   -24.5282    56.0590 H            1 FAD401   0.0000
    60 H7          16.0744   -26.3340    57.7513 H            1 FAD401   0.0000
    61 H1B         17.9017   -27.2636    56.8357 H            1 FAD401   0.0000
    62 H8A         19.7942   -24.0876    55.9818 H            1 FAD401   0.0000
    63 H6A1        23.9757   -26.2159    59.9556 H            1 FAD401   0.0000
    64 H6A2        23.6548   -25.0060    58.7585 H            1 FAD401   0.0000
    65 H2A         20.6595   -29.1912    59.7514 H            1 FAD401   0.0000
    66 H13          8.4796   -24.6423    39.7377 H            1 FAD401   0.0000
    67 H14          8.3580   -18.9097    43.4988 H            1 FAD401   0.0000
    68 H7M1         9.9838   -17.0905    46.2067 H            1 FAD401   0.0000
    69 H7M2         9.2658   -16.6886    44.7962 H            1 FAD401   0.0000
    70 H7M3         8.4612   -17.5912    45.8938 H            1 FAD401   0.0000
    71 H8M1        12.7445   -18.9706    46.5264 H            1 FAD401   0.0000
    72 H8M2        12.1289   -17.5398    46.0360 H            1 FAD401   0.0000
    73 H8M3        11.3593   -18.4092    47.1842 H            1 FAD401   0.0000
    74 H21         12.4828   -20.7029    45.0070 H            1 FAD401   0.0000
    75 H1'1        13.3618   -22.0791    43.6589 H            1 FAD401   0.0000
    76 H1'2        13.0830   -23.2702    42.5771 H            1 FAD401   0.0000
    77 H2'         12.1620   -24.6465    44.1353 H            1 FAD401   0.0000
    78 H25         11.7190   -23.7152    46.3585 H            1 FAD401   0.0000
    79 H3'         14.1144   -23.2224    45.6939 H            1 FAD401   0.0000
    80 H27         15.5879   -24.1527    44.4569 H            1 FAD401   0.0000
    81 H4'         13.7653   -26.0802    45.7263 H            1 FAD401   0.0000
    82 H29         12.8597   -25.9398    47.8009 H            1 FAD401   0.0000
    83 H5'1        15.2264   -24.3344    47.5075 H            1 FAD401   0.0000
    84 H5'2        15.9142   -25.2694    46.3589 H            1 FAD401   0.0000
@<TRIPOS>BOND
     1    1    2      ar
     2    1    3      ar
     3    1    4       1
     4    1   53       1
     5    4    5       1
     6    5    6       1
     7    6    7       1
     8    6    8       1
     9    7   12       1
    10    8    9       1
    11    8   10       1
    12   10   11       1
    13   10   12       1
    14   12   13       1
    15   13   14       1
    16   13   22       1
    17   14   15       2
    18   15   16       1
    19   16   17      ar
    20   16   22      ar
    21   17   18       1
    22   17   19      ar
    23   19   20      ar
    24   20   21      ar
    25   21   22      ar
    26   23   24       1
    27   23   40       2
    28   24   25       2
    29   24   26       1
    30   26   27       1
    31   27   28       2
    32   27   29       1
    33   29   30       2
    34   29   40       1
    35   30   31       1
    36   31   32      ar
    37   31   38      ar
    38   32   33      ar
    39   33   34       1
    40   33   35      ar
    41   35   36       1
    42   35   37      ar
    43   37   38      ar
    44   38   39       1
    45   39   40       1
    46   39   41       1
    47   41   42       1
    48   42   43       1
    49   42   44       1
    50   44   45       1
    51   44   46       1
    52   46   47       1
    53   46   48       1
    54   48   49       1
    55   49   50       1
    56   50   51      ar
    57   50   52      ar
    58   50   53       1
    59   48   84       1
    60    5   54       1
    61    5   55       1
    62    6   56       1
    63    8   57       1
    64    9   58       1
    65   10   59       1
    66   11   60       1
    67   12   61       1
    68   14   62       1
    69   18   63       1
    70   18   64       1
    71   20   65       1
    72   26   66       1
    73   32   67       1
    74   34   68       1
    75   34   69       1
    76   34   70       1
    77   36   71       1
    78   36   72       1
    79   36   73       1
    80   37   74       1
    81   41   75       1
    82   41   76       1
    83   42   77       1
    84   43   78       1
    85   44   79       1
    86   45   80       1
    87   46   81       1
    88   47   82       1
    89   48   83       1
@<TRIPOS>SUBSTRUCTURE
     1 FAD401      1 GROUP             4 A     FAD     0 **** FAD A 401
