@<TRIPOS>MOLECULE
2v1o_COA_1_ligand
   81    83     1     0     0
SMALL
NO_CHARGES


@<TRIPOS>ATOM
     1 N1A        -19.3900    19.1110   -30.8050 N.ar         1 COA1162   0.0000
     2 C2A        -19.9380    17.8620   -30.6260 C.ar         1 COA1162   0.0000
     3 N3A        -21.3060    17.7150   -30.6310 N.ar         1 COA1162   1.0000
     4 C4A        -22.0970    18.8040   -30.8170 C.ar         1 COA1162   0.0000
     5 C5A        -21.5670    20.0730   -31.0080 C.ar         1 COA1162   0.0000
     6 C6A        -20.1910    20.2230   -31.0030 C.ar         1 COA1162   0.0000
     7 N6A        -19.6340    21.4220   -31.1600 N.pl3        1 COA1162   0.0000
     8 N7A        -22.5970    20.9440   -31.1650 N.2          1 COA1162   0.0000
     9 C8A        -23.7530    20.2520   -31.0760 C.2          1 COA1162   0.0000
    10 N9A        -23.4530    18.9340   -30.8620 N.pl3        1 COA1162   0.0000
    11 C1B        -24.3660    17.7910   -30.8530 C.3          1 COA1162   0.0000
    12 C2B        -25.1610    17.7110   -29.5580 C.3          1 COA1162   0.0000
    13 O2B        -24.3900    17.1420   -28.5240 O.3          1 COA1162   0.0000
    14 C3B        -26.3550    16.8830   -30.0060 C.3          1 COA1162   0.0000
    15 O3B        -26.0920    15.4930   -29.9550 O.3          1 COA1162   0.0000
    16 P3B        -26.6910    14.5590   -28.7830 P.3          1 COA1162   0.0000
    17 O7A        -26.0130    14.9540   -27.5120 O.co2        1 COA1162   0.0000
    18 O8A        -28.1760    14.8140   -28.6830 O.co2        1 COA1162  -1.0000
    19 O9A        -26.3970    13.1190   -29.1200 O.co2        1 COA1162  -1.0000
    20 C4B        -26.5220    17.2710   -31.4750 C.3          1 COA1162   0.0000
    21 O4B        -25.3280    17.9200   -31.8710 O.3          1 COA1162   0.0000
    22 C5B        -27.7200    18.1820   -31.7200 C.3          1 COA1162   0.0000
    23 O5B        -27.7360    19.2510   -30.8000 O.3          1 COA1162   0.0000
    24 P1A        -28.8020    20.4300   -31.0100 P.3          1 COA1162   0.0000
    25 O1A        -30.1160    19.8390   -31.4400 O.co2        1 COA1162   0.0000
    26 O2A        -28.8790    21.2290   -29.7280 O.co2        1 COA1162  -1.0000
    27 O3A        -28.2340    21.3420   -32.2090 O.3          1 COA1162   0.0000
    28 P2A        -27.2540    22.6000   -32.0270 P.3          1 COA1162   0.0000
    29 O4A        -26.2650    22.3990   -30.9050 O.co2        1 COA1162   0.0000
    30 O5A        -28.0280    23.8920   -31.8980 O.co2        1 COA1162  -1.0000
    31 O6A        -26.5100    22.6130   -33.4480 O.3          1 COA1162   0.0000
    32 CBP        -24.9570    21.8890   -35.1300 C.3          1 COA1162   0.0000
    33 CCP        -25.5510    21.6120   -33.7490 C.3          1 COA1162   0.0000
    34 CDP        -23.7240    20.9980   -35.3210 C.3          1 COA1162   0.0000
    35 CEP        -26.0190    21.4930   -36.1560 C.3          1 COA1162   0.0000
    36 CAP        -24.5960    23.3780   -35.2240 C.3          1 COA1162   0.0000
    37 OAP        -23.6710    23.7470   -34.2200 O.3          1 COA1162   0.0000
    38 C9P        -24.0530    23.7670   -36.5780 C.2          1 COA1162   0.0000
    39 O9P        -24.9270    23.8980   -37.6590 O.2          1 COA1162   0.0000
    40 N8P        -22.7460    23.9730   -36.6690 N.am         1 COA1162   0.0000
    41 C7P        -22.0770    24.1630   -37.9440 C.3          1 COA1162   0.0000
    42 C6P        -21.8430    22.8360   -38.6660 C.3          1 COA1162   0.0000
    43 C5P        -21.1130    23.1000   -39.9640 C.2          1 COA1162   0.0000
    44 O5P        -21.7180    23.6470   -40.9030 O.2          1 COA1162   0.0000
    45 N4P        -19.8340    22.7200   -40.0150 N.am         1 COA1162   0.0000
    46 C3P        -18.8630    23.2790   -40.9530 C.3          1 COA1162   0.0000
    47 C2P        -18.6060    24.7900   -40.7590 C.3          1 COA1162   0.0000
    48 S1P        -17.4760    25.3010   -42.0720 S.3          1 COA1162   0.0000
    49 H2A        -19.3464    17.0667   -30.4932 H            1 COA1162   0.0000
    50 H6A1       -20.2107    22.2263   -31.3031 H            1 COA1162   0.0000
    51 H6A2       -18.6390    21.5182   -31.1348 H            1 COA1162   0.0000
    52 H8A        -24.6726    20.6373   -31.1533 H            1 COA1162   0.0000
    53 H1B        -23.8485    16.9453   -30.9835 H            1 COA1162   0.0000
    54 H2B        -25.4645    18.6254   -29.2901 H            1 COA1162   0.0000
    55 H7         -24.8379    16.3116   -28.1925 H            1 COA1162   0.0000
    56 H3B        -27.1719    17.1143   -29.4776 H            1 COA1162   0.0000
    57 H4B        -26.6327    16.4388   -32.0183 H            1 COA1162   0.0000
    58 H5B1       -28.5612    17.6508   -31.6193 H            1 COA1162   0.0000
    59 H5B2       -27.6671    18.5498   -32.6484 H            1 COA1162   0.0000
    60 HCP1       -25.9919    20.7145   -33.7478 H            1 COA1162   0.0000
    61 HCP2       -24.8241    21.6272   -33.0624 H            1 COA1162   0.0000
    62 HDP1       -23.3251    21.1695   -36.2218 H            1 COA1162   0.0000
    63 HDP2       -23.0494    21.2061   -34.6127 H            1 COA1162   0.0000
    64 HDP3       -23.9932    20.0373   -35.2530 H            1 COA1162   0.0000
    65 HEP1       -25.6698    21.6590   -37.0782 H            1 COA1162   0.0000
    66 HEP2       -26.2376    20.5227   -36.0520 H            1 COA1162   0.0000
    67 HEP3       -26.8443    22.0383   -36.0089 H            1 COA1162   0.0000
    68 HAP        -25.4335    23.9027   -35.0716 H            1 COA1162   0.0000
    69 H21        -24.0719    24.4583   -33.6426 H            1 COA1162   0.0000
    70 H8P        -22.2021    23.9984   -35.8303 H            1 COA1162   0.0000
    71 H7P1       -21.1941    24.6043   -37.7836 H            1 COA1162   0.0000
    72 H7P2       -22.6431    24.7506   -38.5221 H            1 COA1162   0.0000
    73 H6P1       -22.7222    22.4004   -38.8590 H            1 COA1162   0.0000
    74 H6P2       -21.2920    22.2334   -38.0887 H            1 COA1162   0.0000
    75 H4P        -19.5240    22.0151   -39.3771 H            1 COA1162   0.0000
    76 H3P1       -19.2028    23.1339   -41.8822 H            1 COA1162   0.0000
    77 H3P2       -17.9963    22.7943   -40.8356 H            1 COA1162   0.0000
    78 H2P1       -18.1916    24.9565   -39.8642 H            1 COA1162   0.0000
    79 H2P2       -19.4653    25.2968   -40.8279 H            1 COA1162   0.0000
    80 H1P        -17.6477    26.2580   -42.3059 H            1 COA1162   0.0000
    81 H3A        -21.7155    16.8124   -30.4986 H            1 COA1162   0.0000
@<TRIPOS>BOND
     1    1    2      ar
     2    1    6      ar
     3    2    3      ar
     4    3    4      ar
     5    4    5      ar
     6    4   10       1
     7    5    6      ar
     8    5    8       1
     9    6    7       1
    10    8    9       2
    11    9   10       1
    12   10   11       1
    13   11   12       1
    14   11   21       1
    15   12   13       1
    16   12   14       1
    17   14   15       1
    18   14   20       1
    19   15   16       1
    20   16   17      ar
    21   16   18      ar
    22   16   19      ar
    23   20   21       1
    24   20   22       1
    25   22   23       1
    26   23   24       1
    27   24   25      ar
    28   24   26      ar
    29   24   27       1
    30   27   28       1
    31   28   29      ar
    32   28   30      ar
    33   28   31       1
    34   31   33       1
    35   32   33       1
    36   32   34       1
    37   32   35       1
    38   32   36       1
    39   36   37       1
    40   36   38       1
    41   38   39       2
    42   38   40      am
    43   40   41       1
    44   41   42       1
    45   42   43       1
    46   43   44       2
    47   43   45      am
    48   45   46       1
    49   46   47       1
    50   47   48       1
    51    2   49       1
    52    7   50       1
    53    7   51       1
    54    9   52       1
    55   11   53       1
    56   12   54       1
    57   13   55       1
    58   14   56       1
    59   48   80       1
    60   47   79       1
    61   20   57       1
    62   22   58       1
    63   22   59       1
    64   47   78       1
    65   46   77       1
    66   33   60       1
    67   33   61       1
    68   34   62       1
    69   34   63       1
    70   34   64       1
    71   35   65       1
    72   35   66       1
    73   35   67       1
    74   36   68       1
    75   37   69       1
    76   40   70       1
    77   41   71       1
    78   41   72       1
    79   42   73       1
    80   42   74       1
    81   45   75       1
    82   46   76       1
    83    3   81       1
@<TRIPOS>SUBSTRUCTURE
     1 COA1162     1 GROUP             4 A     COA     0 **** COA A1162
