@<TRIPOS>MOLECULE
1c0l_FAD_1_ligand
   84    89     1     0     0
SMALL
NO_CHARGES


@<TRIPOS>ATOM
     1 PA          30.7400   132.9430    33.8320 P.3          1 FAD1363   0.0000
     2 O1A         32.2110   133.0080    33.9850 O.co2        1 FAD1363   0.0000
     3 O2A         30.1530   133.2940    32.4810 O.co2        1 FAD1363  -1.0000
     4 O5B         29.9020   134.0220    34.8220 O.3          1 FAD1363   0.0000
     5 C5B         30.3970   133.9940    36.2090 C.3          1 FAD1363   0.0000
     6 C4B         29.5350   135.1270    36.6620 C.3          1 FAD1363   0.0000
     7 O4B         29.9320   135.3000    38.1780 O.3          1 FAD1363   0.0000
     8 C3B         29.9320   136.6080    36.1120 C.3          1 FAD1363   0.0000
     9 O3B         28.7050   137.3600    36.2520 O.3          1 FAD1363   0.0000
    10 C2B         30.9970   137.0650    37.1290 C.3          1 FAD1363   0.0000
    11 O2B         31.0950   138.4380    37.0780 O.3          1 FAD1363   0.0000
    12 C1B         30.3630   136.6750    38.4140 C.3          1 FAD1363   0.0000
    13 N9A         31.2810   136.5460    39.5270 N.pl3        1 FAD1363   0.0000
    14 C8A         32.5080   135.7830    39.5680 C.2          1 FAD1363   0.0000
    15 N7A         33.0000   136.0600    40.7750 N.2          1 FAD1363   0.0000
    16 C5A         32.2720   137.0040    41.4050 C.ar         1 FAD1363   0.0000
    17 C6A         32.4260   137.7490    42.7010 C.ar         1 FAD1363   0.0000
    18 N6A         33.3790   137.4750    43.5130 N.pl3        1 FAD1363   0.0000
    19 N1A         31.3810   138.5650    43.0410 N.ar         1 FAD1363   0.0000
    20 C2A         30.3430   138.9170    42.1450 C.ar         1 FAD1363   0.0000
    21 N3A         30.2800   138.2010    40.9160 N.ar         1 FAD1363   0.0000
    22 C4A         31.1010   137.3680    40.5890 C.ar         1 FAD1363   0.0000
    23 N1          30.0620   126.5460    26.0580 N.2          1 FAD1363   0.0000
    24 C2          29.1190   125.8150    25.3110 C.2          1 FAD1363   0.0000
    25 O2          28.1800   125.2220    25.8340 O.2          1 FAD1363   0.0000
    26 N3          29.2020   125.7170    23.8880 N.pl3        1 FAD1363   0.0000
    27 C4          30.2830   126.4600    23.2580 C.2          1 FAD1363   0.0000
    28 O4          30.1970   126.4620    21.9410 O.2          1 FAD1363   0.0000
    29 C4X         31.3070   127.0910    23.9480 C.2          1 FAD1363   0.0000
    30 N5          32.2440   127.6910    23.3190 N.2          1 FAD1363   0.0000
    31 C5X         33.1880   128.2390    24.1470 C.ar         1 FAD1363   0.0000
    32 C6          34.4280   128.8130    23.5250 C.ar         1 FAD1363   0.0000
    33 C7          35.3790   129.6180    24.2340 C.ar         1 FAD1363   0.0000
    34 C7M         36.5060   130.2400    23.5390 C.3          1 FAD1363   0.0000
    35 C8          35.0270   129.7950    25.5750 C.ar         1 FAD1363   0.0000
    36 C8M         36.0940   130.6050    26.4680 C.3          1 FAD1363   0.0000
    37 C9          33.9210   129.2120    26.3270 C.ar         1 FAD1363   0.0000
    38 C9A         33.1410   128.4020    25.5350 C.ar         1 FAD1363   0.0000
    39 N10         32.0260   127.7520    26.1530 N.pl3        1 FAD1363   0.0000
    40 C10         31.0760   127.1220    25.3340 C.2          1 FAD1363   0.0000
    41 C1'         31.9750   127.5610    27.6200 C.3          1 FAD1363   0.0000
    42 C2'         30.9640   128.5810    28.2170 C.3          1 FAD1363   0.0000
    43 O2'         31.5830   129.9570    27.8680 O.3          1 FAD1363   0.0000
    44 C3'         31.1310   128.6100    29.7200 C.3          1 FAD1363   0.0000
    45 O3'         30.8390   127.2530    30.2280 O.3          1 FAD1363   0.0000
    46 C4'         29.9470   129.3900    30.4020 C.3          1 FAD1363   0.0000
    47 O4'         30.0480   130.7680    29.9310 O.3          1 FAD1363   0.0000
    48 C5'         30.1010   129.3550    31.9640 C.3          1 FAD1363   0.0000
    49 O5'         29.0270   130.2950    32.4340 O.3          1 FAD1363   0.0000
    50 P           28.9600   130.6400    33.9650 P.3          1 FAD1363   0.0000
    51 O1P         27.7550   131.3670    34.1260 O.co2        1 FAD1363   0.0000
    52 O2P         29.1720   129.3760    34.7660 O.co2        1 FAD1363  -1.0000
    53 O3P         30.2710   131.4980    34.2850 O.3          1 FAD1363   0.0000
    54 H5B1        31.3746   134.1920    36.2806 H            1 FAD1363   0.0000
    55 H5B2        30.1955   133.1352    36.6801 H            1 FAD1363   0.0000
    56 H4B         28.5614   134.9300    36.5469 H            1 FAD1363   0.0000
    57 H3B         30.2736   136.5942    35.1722 H            1 FAD1363   0.0000
    58 H5          28.6652   138.0674    35.5463 H            1 FAD1363   0.0000
    59 H2B         31.8783   136.6144    36.9865 H            1 FAD1363   0.0000
    60 H7          31.7839   138.6981    36.4015 H            1 FAD1363   0.0000
    61 H1B         29.5913   137.2696    38.6397 H            1 FAD1363   0.0000
    62 H8A         32.8943   135.1904    38.8612 H            1 FAD1363   0.0000
    63 H6A1        33.4659   137.9812    44.3710 H            1 FAD1363   0.0000
    64 H6A2        34.0357   136.7550    43.2886 H            1 FAD1363   0.0000
    65 H2A         29.6839   139.6360    42.3653 H            1 FAD1363   0.0000
    66 H13         28.5553   125.1701    23.3563 H            1 FAD1363   0.0000
    67 H14         34.6008   128.6225    22.5587 H            1 FAD1363   0.0000
    68 H7M1        37.0561   130.7585    24.1936 H            1 FAD1363   0.0000
    69 H7M2        37.0705   129.5303    23.1176 H            1 FAD1363   0.0000
    70 H7M3        36.1618   130.8564    22.8308 H            1 FAD1363   0.0000
    71 H8M1        35.7553   130.6796    27.4059 H            1 FAD1363   0.0000
    72 H8M2        36.9675   130.1182    26.4668 H            1 FAD1363   0.0000
    73 H8M3        36.2219   131.5203    26.0860 H            1 FAD1363   0.0000
    74 H21         33.7511   129.3804    27.2980 H            1 FAD1363   0.0000
    75 H1'1        32.8818   127.7164    28.0119 H            1 FAD1363   0.0000
    76 H1'2        31.6769   126.6295    27.8285 H            1 FAD1363   0.0000
    77 H2'         30.0210   128.4600    27.9069 H            1 FAD1363   0.0000
    78 H25         31.3278   130.6244    28.5676 H            1 FAD1363   0.0000
    79 H3'         32.0296   128.9447    30.0035 H            1 FAD1363   0.0000
    80 H27         31.6819   126.7153    30.2461 H            1 FAD1363   0.0000
    81 H4'         29.0695   128.9943    30.1311 H            1 FAD1363   0.0000
    82 H29         29.3141   131.3133    30.3360 H            1 FAD1363   0.0000
    83 H5'1        31.0061   129.6761    32.2427 H            1 FAD1363   0.0000
    84 H5'2        29.9508   128.4322    32.3189 H            1 FAD1363   0.0000
@<TRIPOS>BOND
     1    1    2      ar
     2    1    3      ar
     3    1    4       1
     4    1   53       1
     5    4    5       1
     6    5    6       1
     7    6    7       1
     8    6    8       1
     9    7   12       1
    10    8    9       1
    11    8   10       1
    12   10   11       1
    13   10   12       1
    14   12   13       1
    15   13   14       1
    16   13   22       1
    17   14   15       2
    18   15   16       1
    19   16   17      ar
    20   16   22      ar
    21   17   18       1
    22   17   19      ar
    23   19   20      ar
    24   20   21      ar
    25   21   22      ar
    26   23   24       1
    27   23   40       2
    28   24   25       2
    29   24   26       1
    30   26   27       1
    31   27   28       2
    32   27   29       1
    33   29   30       2
    34   29   40       1
    35   30   31       1
    36   31   32      ar
    37   31   38      ar
    38   32   33      ar
    39   33   34       1
    40   33   35      ar
    41   35   36       1
    42   35   37      ar
    43   37   38      ar
    44   38   39       1
    45   39   40       1
    46   39   41       1
    47   41   42       1
    48   42   43       1
    49   42   44       1
    50   44   45       1
    51   44   46       1
    52   46   47       1
    53   46   48       1
    54   48   49       1
    55   49   50       1
    56   50   51      ar
    57   50   52      ar
    58   50   53       1
    59   48   84       1
    60    5   54       1
    61    5   55       1
    62    6   56       1
    63    8   57       1
    64    9   58       1
    65   10   59       1
    66   11   60       1
    67   12   61       1
    68   14   62       1
    69   18   63       1
    70   18   64       1
    71   20   65       1
    72   26   66       1
    73   32   67       1
    74   34   68       1
    75   34   69       1
    76   34   70       1
    77   36   71       1
    78   36   72       1
    79   36   73       1
    80   37   74       1
    81   41   75       1
    82   41   76       1
    83   42   77       1
    84   43   78       1
    85   44   79       1
    86   45   80       1
    87   46   81       1
    88   47   82       1
    89   48   83       1
@<TRIPOS>SUBSTRUCTURE
     1 FAD1363     1 GROUP             4 A     FAD     0 **** FAD A1363
