@<TRIPOS>MOLECULE
2nni_MTK_1_ligand
   76    80     1     0     0
SMALL
NO_CHARGES


@<TRIPOS>ATOM
     1 CAQ         52.8340     8.6830   -29.2800 C.ar         1 MTK501   0.0000
     2 CAS         52.8520     7.8490   -30.4320 C.ar         1 MTK501   0.0000
     3 CBK         51.6270     7.4220   -31.0230 C.ar         1 MTK501   0.0000
     4 CAR         51.6040     6.5890   -32.1750 C.ar         1 MTK501   0.0000
     5 CAO         50.3480     6.1830   -32.7310 C.ar         1 MTK501   0.0000
     6 CBE         49.1250     6.6040   -32.1400 C.ar         1 MTK501   0.0000
     7 CLAF        47.6200     6.1200   -32.8120 Cl           1 MTK501   0.0000
     8 CAU         49.1430     7.4370   -30.9900 C.ar         1 MTK501   0.0000
     9 CBL         50.3880     7.8520   -30.4260 C.ar         1 MTK501   0.0000
    10 NBB         50.4130     8.6550   -29.3220 N.ar         1 MTK501   0.0000
    11 CBG         51.5720     9.0820   -28.7350 C.ar         1 MTK501   0.0000
    12 CAH         51.4500     9.9040   -27.6120 C.2          1 MTK501   0.0000
    13 CAG         52.5470    10.3990   -26.8910 C.2          1 MTK501   0.0000
    14 CBF         52.4630    11.2490   -25.7820 C.ar         1 MTK501   0.0000
    15 CAT         51.2330    11.7350   -25.2730 C.ar         1 MTK501   0.0000
    16 CAL         53.6720    11.6370   -25.1530 C.ar         1 MTK501   0.0000
    17 CAK         53.6560    12.4920   -24.0260 C.ar         1 MTK501   0.0000
    18 CAN         52.4300    12.9800   -23.5190 C.ar         1 MTK501   0.0000
    19 CBI         51.2230    12.6080   -24.1490 C.ar         1 MTK501   0.0000
    20 CBM         49.9400    13.2760   -23.6730 C.3          1 MTK501   0.0000
    21 SBC         48.6890    12.0520   -23.2360 S.3          1 MTK501   0.0000
    22 CAZ         49.0920    12.0940   -21.4620 C.3          1 MTK501   0.0000
    23 CBO         48.2540    11.1750   -20.5800 C.3          1 MTK501   0.0000
    24 CAX         46.7430    11.3500   -20.8360 C.3          1 MTK501   0.0000
    25 CAY         47.4510     9.9730   -20.9600 C.3          1 MTK501   0.0000
    26 CBA         48.6880    11.2680   -19.1150 C.3          1 MTK501   0.0000
    27 CBD         50.1100    10.7250   -18.9380 C.2          1 MTK501   0.0000
    28 OAC         50.9590    11.3950   -18.3260 O.co2        1 MTK501   0.0000
    29 OAD         50.4130     9.6240   -19.4180 O.co2        1 MTK501  -1.0000
    30 CAW         49.4540    14.1620   -24.7960 C.3          1 MTK501   0.0000
    31 CAV         48.7760    15.4280   -24.3210 C.3          1 MTK501   0.0000
    32 CBH         49.0360    16.5040   -25.3860 C.ar         1 MTK501   0.0000
    33 CAM         50.2150    17.2520   -25.1380 C.ar         1 MTK501   0.0000
    34 CAI         50.6300    18.2800   -25.9900 C.ar         1 MTK501   0.0000
    35 CAJ         49.8630    18.5930   -27.1270 C.ar         1 MTK501   0.0000
    36 CAP         48.6800    17.8670   -27.4090 C.ar         1 MTK501   0.0000
    37 CBJ         48.2240    16.8100   -26.5680 C.ar         1 MTK501   0.0000
    38 CBN         46.8680    16.0680   -27.0020 C.3          1 MTK501   0.0000
    39 CAA         47.0420    14.5640   -27.2970 C.3          1 MTK501   0.0000
    40 CAB         45.8100    16.2490   -25.9120 C.3          1 MTK501   0.0000
    41 OAE         46.3540    16.6480   -28.2090 O.3          1 MTK501   0.0000
    42 HAQ         53.6886     8.9855   -28.8579 H            1 MTK501   0.0000
    43 HAS         53.7244     7.5620   -30.8276 H            1 MTK501   0.0000
    44 HAR         52.4603     6.2881   -32.5949 H            1 MTK501   0.0000
    45 HAO         50.3310     5.5983   -33.5420 H            1 MTK501   0.0000
    46 HAU         48.2830     7.7334   -30.5745 H            1 MTK501   0.0000
    47 HAH         50.5312    10.1530   -27.3056 H            1 MTK501   0.0000
    48 HAG         53.4596    10.1232   -27.1927 H            1 MTK501   0.0000
    49 HAT         50.3719    11.4645   -25.7036 H            1 MTK501   0.0000
    50 HAL         54.5448    11.3033   -25.5091 H            1 MTK501   0.0000
    51 HAK         54.5156    12.7522   -23.5862 H            1 MTK501   0.0000
    52 HAN         52.4180    13.5831   -22.7215 H            1 MTK501   0.0000
    53 HBM         50.1410    13.8406   -22.8725 H            1 MTK501   0.0000
    54 HAZ1        48.9653    13.0318   -21.1388 H            1 MTK501   0.0000
    55 HAZ2        50.0513    11.8320   -21.3571 H            1 MTK501   0.0000
    56 HAX1        46.4207    11.8282   -21.6530 H            1 MTK501   0.0000
    57 HAX2        46.1190    11.5311   -20.0758 H            1 MTK501   0.0000
    58 HAY1        47.2729     9.2587   -20.2832 H            1 MTK501   0.0000
    59 HAY2        47.5746     9.5558   -21.8604 H            1 MTK501   0.0000
    60 HBA1        48.0592    10.7324   -18.5514 H            1 MTK501   0.0000
    61 HBA2        48.6631    12.2247   -18.8250 H            1 MTK501   0.0000
    62 HAW1        48.8019    13.6427   -25.3483 H            1 MTK501   0.0000
    63 HAW2        50.2396    14.4169   -25.3597 H            1 MTK501   0.0000
    64 HAV1        49.1596    15.7142   -23.4430 H            1 MTK501   0.0000
    65 HAV2        47.7930    15.2743   -24.2211 H            1 MTK501   0.0000
    66 HAM         50.7652    17.0381   -24.3308 H            1 MTK501   0.0000
    67 HAI         51.4672    18.7898   -25.7923 H            1 MTK501   0.0000
    68 HAJ         50.1537    19.3297   -27.7375 H            1 MTK501   0.0000
    69 HAP         48.1486    18.1030   -28.2226 H            1 MTK501   0.0000
    70 HAA1        46.1604    14.1716   -27.5594 H            1 MTK501   0.0000
    71 HAA2        47.6958    14.4443   -28.0442 H            1 MTK501   0.0000
    72 HAA3        47.3826    14.1010   -26.4787 H            1 MTK501   0.0000
    73 HAB1        44.9670    15.7858   -26.1855 H            1 MTK501   0.0000
    74 HAB2        46.1435    15.8558   -25.0552 H            1 MTK501   0.0000
    75 HAB3        45.6279    17.2238   -25.7828 H            1 MTK501   0.0000
    76 HAE         46.7346    16.1666   -28.9985 H            1 MTK501   0.0000
@<TRIPOS>BOND
     1    1    2      ar
     2    1   11      ar
     3    2    3      ar
     4    3    4      ar
     5    3    9      ar
     6    4    5      ar
     7    5    6      ar
     8    6    7       1
     9    6    8      ar
    10    8    9      ar
    11    9   10      ar
    12   10   11      ar
    13   11   12       1
    14   12   13       2
    15   13   14       1
    16   14   15      ar
    17   14   16      ar
    18   15   19      ar
    19   16   17      ar
    20   17   18      ar
    21   18   19      ar
    22   19   20       1
    23   20   21       1
    24   20   30       1
    25   21   22       1
    26   22   23       1
    27   23   24       1
    28   23   25       1
    29   23   26       1
    30   24   25       1
    31   26   27       1
    32   27   28      ar
    33   27   29      ar
    34   30   31       1
    35   31   32       1
    36   32   33      ar
    37   32   37      ar
    38   33   34      ar
    39   34   35      ar
    40   35   36      ar
    41   36   37      ar
    42   37   38       1
    43   38   39       1
    44   38   40       1
    45   38   41       1
    46    1   42       1
    47    2   43       1
    48    4   44       1
    49    5   45       1
    50    8   46       1
    51   12   47       1
    52   13   48       1
    53   15   49       1
    54   16   50       1
    55   17   51       1
    56   18   52       1
    57   20   53       1
    58   22   54       1
    59   22   55       1
    60   24   56       1
    61   24   57       1
    62   25   58       1
    63   25   59       1
    64   26   60       1
    65   26   61       1
    66   41   76       1
    67   30   62       1
    68   30   63       1
    69   31   64       1
    70   31   65       1
    71   33   66       1
    72   34   67       1
    73   35   68       1
    74   36   69       1
    75   39   70       1
    76   39   71       1
    77   39   72       1
    78   40   73       1
    79   40   74       1
    80   40   75       1
@<TRIPOS>SUBSTRUCTURE
     1 MTK501      1 GROUP             4 A     MTK     0 **** MTK A 501
