@<TRIPOS>MOLECULE
1ghe_ACO_1_ligand
   85    87     1     0     0
SMALL
NO_CHARGES


@<TRIPOS>ATOM
     1 N1A         16.4970    11.1380    14.8060 N.ar         1 ACO301   0.0000
     2 C2A         16.5690    12.1860    13.9130 C.ar         1 ACO301   0.0000
     3 N3A         16.6770    13.4880    14.2060 N.ar         1 ACO301   0.0000
     4 C4A         16.7250    13.6620    15.6040 C.ar         1 ACO301   0.0000
     5 C5A         16.6930    12.6960    16.6070 C.ar         1 ACO301   0.0000
     6 C6A         16.5470    11.3470    16.1840 C.ar         1 ACO301   0.0000
     7 N6A         16.3780    10.3210    17.0310 N.pl3        1 ACO301   0.0000
     8 N7A         16.8180    13.2470    17.8880 N.2          1 ACO301   0.0000
     9 C8A         16.8940    14.5690    17.6070 C.2          1 ACO301   0.0000
    10 N9A         16.8280    14.8950    16.2510 N.pl3        1 ACO301   0.0000
    11 C1B         16.9510    16.2330    15.6520 C.3          1 ACO301   0.0000
    12 C2B         15.5860    16.7290    15.1240 C.3          1 ACO301   0.0000
    13 O2B         15.4620    17.3100    14.1850 O.3          1 ACO301   0.0000
    14 C3B         15.0670    17.7090    16.1840 C.3          1 ACO301   0.0000
    15 O3B         14.5050    19.0490    15.8550 O.3          1 ACO301   0.0000
    16 P3B         12.9430    18.8590    15.3760 P.3          1 ACO301   0.0000
    17 O7A         12.1890    17.5700    15.2840 O.co2        1 ACO301   0.0000
    18 O8A         12.1400    20.1080    15.4530 O.co2        1 ACO301  -1.0000
    19 O9A         12.7890    18.6130    16.9290 O.co2        1 ACO301  -1.0000
    20 C4B         16.2920    18.1830    16.9020 C.3          1 ACO301   0.0000
    21 O4B         17.4010    17.2450    16.5920 O.3          1 ACO301   0.0000
    22 C5B         16.7910    18.7340    18.0720 C.3          1 ACO301   0.0000
    23 O5B         16.3410    17.6120    18.9790 O.3          1 ACO301   0.0000
    24 P1A         16.0870    17.8220    20.5190 P.3          1 ACO301   0.0000
    25 O1A         16.7790    18.9830    21.1240 O.co2        1 ACO301   0.0000
    26 O2A         14.9310    17.1530    21.0950 O.co2        1 ACO301  -1.0000
    27 O3A         16.9070    16.5800    20.9310 O.3          1 ACO301   0.0000
    28 P2A         17.2730    15.8690    22.3340 P.3          1 ACO301   0.0000
    29 O4A         17.1290    16.7590    23.4930 O.co2        1 ACO301   0.0000
    30 O5A         16.5530    14.6540    22.3990 O.co2        1 ACO301  -1.0000
    31 O6A         18.8650    15.7670    22.2720 O.3          1 ACO301   0.0000
    32 CBP         20.9270    14.4490    22.0680 C.3          1 ACO301   0.0000
    33 CCP         19.4950    14.9130    21.3460 C.3          1 ACO301   0.0000
    34 CDP         21.5080    15.4760    23.0760 C.3          1 ACO301   0.0000
    35 CEP         21.7200    14.2890    20.5490 C.3          1 ACO301   0.0000
    36 CAP         20.4610    13.1910    22.8480 C.3          1 ACO301   0.0000
    37 OAP         19.8930    12.1510    21.9780 O.3          1 ACO301   0.0000
    38 C9P         21.5020    12.4230    23.6210 C.2          1 ACO301   0.0000
    39 O9P         21.6410    12.7170    24.9570 O.2          1 ACO301   0.0000
    40 N8P         22.2400    11.4770    22.9510 N.am         1 ACO301   0.0000
    41 C7P         23.3080    10.7160    23.8170 C.3          1 ACO301   0.0000
    42 C6P         24.5400    11.5140    24.1240 C.3          1 ACO301   0.0000
    43 C5P         25.3070    11.9750    22.9330 C.2          1 ACO301   0.0000
    44 O5P         25.4430    11.0930    22.0040 O.2          1 ACO301   0.0000
    45 N4P         25.7350    13.2070    22.8710 N.am         1 ACO301   0.0000
    46 C3P         26.5710    13.6240    21.6980 C.3          1 ACO301   0.0000
    47 C2P         27.9840    13.9300    22.2440 C.3          1 ACO301   0.0000
    48 S1P         28.9280    14.5260    20.8860 S.3          1 ACO301   0.0000
    49 C           29.5600    16.1300    21.4000 C.2          1 ACO301   0.0000
    50 O           29.1200    17.1190    22.3960 O.2          1 ACO301   0.0000
    51 CH3         30.0800    16.9620    20.1300 C.3          1 ACO301   0.0000
    52 H2A         16.5371    11.9481    12.9422 H            1 ACO301   0.0000
    53 H6A1        16.4148    10.4763    18.0182 H            1 ACO301   0.0000
    54 H6A2        16.2152     9.4007    16.6754 H            1 ACO301   0.0000
    55 H8A         16.9906    15.2632    18.3203 H            1 ACO301   0.0000
    56 H1B         17.5967    16.1887    14.8897 H            1 ACO301   0.0000
    57 H2B         14.9627    15.9477    15.0910 H            1 ACO301   0.0000
    58 H7          15.0502    18.1970    14.3938 H            1 ACO301   0.0000
    59 H3B         14.4613    17.2325    16.8213 H            1 ACO301   0.0000
    60 H4B         16.5485    18.9196    16.2762 H            1 ACO301   0.0000
    61 H5B1        16.3644    19.6094    18.2994 H            1 ACO301   0.0000
    62 H5B2        17.7850    18.8420    18.0550 H            1 ACO301   0.0000
    63 HCP1        19.6763    15.3982    20.4906 H            1 ACO301   0.0000
    64 HCP2        18.9221    14.1144    21.1614 H            1 ACO301   0.0000
    65 HDP1        22.3606    15.1210    23.4595 H            1 ACO301   0.0000
    66 HDP2        21.6884    16.3396    22.6053 H            1 ACO301   0.0000
    67 HDP3        20.8494    15.6292    23.8127 H            1 ACO301   0.0000
    68 HEP1        22.6658    13.9992    20.6956 H            1 ACO301   0.0000
    69 HEP2        21.2442    13.6059    19.9949 H            1 ACO301   0.0000
    70 HEP3        21.7108    15.1689    20.0739 H            1 ACO301   0.0000
    71 HAP         19.7496    13.4750    23.4908 H            1 ACO301   0.0000
    72 H21         20.0602    11.2513    22.3811 H            1 ACO301   0.0000
    73 H8P         22.1065    11.2859    21.9786 H            1 ACO301   0.0000
    74 H7P1        23.5842     9.8930    23.3206 H            1 ACO301   0.0000
    75 H7P2        22.8805    10.4554    24.6826 H            1 ACO301   0.0000
    76 H6P1        25.1456    10.9466    24.6820 H            1 ACO301   0.0000
    77 H6P2        24.2643    12.3209    24.6464 H            1 ACO301   0.0000
    78 H4P         25.5093    13.8610    23.5930 H            1 ACO301   0.0000
    79 H3P1        26.1825    14.4406    21.2711 H            1 ACO301   0.0000
    80 H3P2        26.6142    12.8849    21.0258 H            1 ACO301   0.0000
    81 H2P1        28.3985    13.0986    22.6141 H            1 ACO301   0.0000
    82 H2P2        27.9339    14.6252    22.9611 H            1 ACO301   0.0000
    83 HH31        30.4275    17.8496    20.4325 H            1 ACO301   0.0000
    84 HH32        30.8124    16.4544    19.6761 H            1 ACO301   0.0000
    85 HH33        29.3242    17.1004    19.4900 H            1 ACO301   0.0000
@<TRIPOS>BOND
     1    1    2      ar
     2    1    6      ar
     3    2    3      ar
     4    3    4      ar
     5    4    5      ar
     6    4   10       1
     7    5    6      ar
     8    5    8       1
     9    6    7       1
    10    8    9       2
    11    9   10       1
    12   10   11       1
    13   11   12       1
    14   11   21       1
    15   12   13       1
    16   12   14       1
    17   14   15       1
    18   14   20       1
    19   15   16       1
    20   16   17      ar
    21   16   18      ar
    22   16   19      ar
    23   20   21       1
    24   20   22       1
    25   22   23       1
    26   23   24       1
    27   24   25      ar
    28   24   26      ar
    29   24   27       1
    30   27   28       1
    31   28   29      ar
    32   28   30      ar
    33   28   31       1
    34   31   33       1
    35   32   33       1
    36   32   34       1
    37   32   35       1
    38   32   36       1
    39   36   37       1
    40   36   38       1
    41   38   39       2
    42   38   40      am
    43   40   41       1
    44   41   42       1
    45   42   43       1
    46   43   44       2
    47   43   45      am
    48   45   46       1
    49   46   47       1
    50   47   48       1
    51   48   49       1
    52   49   50       2
    53   49   51       1
    54    2   52       1
    55    7   53       1
    56    7   54       1
    57    9   55       1
    58   11   56       1
    59   12   57       1
    60   13   58       1
    61   14   59       1
    62   51   85       1
    63   51   84       1
    64   20   60       1
    65   22   61       1
    66   22   62       1
    67   51   83       1
    68   47   82       1
    69   33   63       1
    70   33   64       1
    71   34   65       1
    72   34   66       1
    73   34   67       1
    74   35   68       1
    75   35   69       1
    76   35   70       1
    77   36   71       1
    78   37   72       1
    79   40   73       1
    80   41   74       1
    81   41   75       1
    82   42   76       1
    83   42   77       1
    84   45   78       1
    85   46   79       1
    86   46   80       1
    87   47   81       1
@<TRIPOS>SUBSTRUCTURE
     1 ACO301      1 GROUP             4 A     ACO     0 **** ACO A 301
