@<TRIPOS>MOLECULE
3kap_FMN_1_ligand
   50    52     1     0     0
SMALL
NO_CHARGES


@<TRIPOS>ATOM
     1 N1           0.5400    50.2260    -2.4770 N.2          1 FMN150   0.0000
     2 C2           0.0330    49.9610    -1.3070 C.2          1 FMN150   0.0000
     3 O2           0.5480    49.8900    -0.2570 O.2          1 FMN150   0.0000
     4 N3          -1.3210    49.7260    -1.3080 N.pl3        1 FMN150   0.0000
     5 C4          -2.0670    49.7820    -2.4820 C.2          1 FMN150   0.0000
     6 O4          -3.3010    49.5590    -2.4620 O.2          1 FMN150   0.0000
     7 C4A         -1.4180    50.0900    -3.6970 C.2          1 FMN150   0.0000
     8 N5          -2.1030    50.1700    -4.8930 N.2          1 FMN150   0.0000
     9 C5A         -1.4480    50.4710    -6.0840 C.ar         1 FMN150   0.0000
    10 C6          -2.1830    50.5470    -7.2670 C.ar         1 FMN150   0.0000
    11 C7          -1.5320    50.8500    -8.4890 C.ar         1 FMN150   0.0000
    12 C7M         -2.3890    50.9290    -9.7420 C.3          1 FMN150   0.0000
    13 C8          -0.1110    51.0770    -8.5620 C.ar         1 FMN150   0.0000
    14 C8M          0.4040    51.3510    -9.7980 C.3          1 FMN150   0.0000
    15 C9           0.4390    50.9570    -7.2970 C.ar         1 FMN150   0.0000
    16 C9A         -0.0360    50.6890    -6.0800 C.ar         1 FMN150   0.0000
    17 N10          0.5140    50.5850    -4.8420 N.pl3        1 FMN150   0.0000
    18 C10         -0.0220    50.3190    -3.6640 C.2          1 FMN150   0.0000
    19 C1'          1.9980    50.7840    -4.6330 C.3          1 FMN150   0.0000
    20 C2'          2.8550    49.5020    -4.8350 C.3          1 FMN150   0.0000
    21 O2'          2.4180    48.3930    -4.0190 O.3          1 FMN150   0.0000
    22 C3'          4.3370    49.8130    -4.5520 C.3          1 FMN150   0.0000
    23 O3'          4.9190    50.3590    -5.6900 O.3          1 FMN150   0.0000
    24 C4'          5.0800    48.5440    -4.1290 C.3          1 FMN150   0.0000
    25 O4'          6.3050    48.9220    -3.5300 O.3          1 FMN150   0.0000
    26 C5'          5.4120    47.5780    -5.2810 C.3          1 FMN150   0.0000
    27 O5'          6.0660    46.4520    -4.7210 O.3          1 FMN150   0.0000
    28 P            6.5530    45.2010    -5.6360 P.3          1 FMN150   0.0000
    29 O1P          7.1590    44.2090    -4.7330 O.co2        1 FMN150   0.0000
    30 O2P          7.5960    45.5940    -6.6010 O.co2        1 FMN150  -1.0000
    31 O3P          5.3810    44.6350    -6.3970 O.co2        1 FMN150  -1.0000
    32 H1          -1.7805    49.5100    -0.4465 H            1 FMN150   0.0000
    33 H2          -3.1701    50.3876    -7.2530 H            1 FMN150   0.0000
    34 H7M1        -1.8109    51.1481   -10.5280 H            1 FMN150   0.0000
    35 H7M2        -2.8389    50.0490    -9.8942 H            1 FMN150   0.0000
    36 H7M3        -3.0810    51.6419    -9.6282 H            1 FMN150   0.0000
    37 H8M1         1.3917    51.4891    -9.7244 H            1 FMN150   0.0000
    38 H8M2         0.2195    50.5847   -10.4134 H            1 FMN150   0.0000
    39 H8M3        -0.0223    52.1797   -10.1605 H            1 FMN150   0.0000
    40 H9           1.4277    51.1070    -7.2956 H            1 FMN150   0.0000
    41 H1'1         2.1408    51.1113    -3.6989 H            1 FMN150   0.0000
    42 H1'2         2.3146    51.4767    -5.2810 H            1 FMN150   0.0000
    43 H2'          2.7763    49.2278    -5.7935 H            1 FMN150   0.0000
    44 H13          1.4718    48.1636    -4.2474 H            1 FMN150   0.0000
    45 H3'          4.3906    50.4810    -3.8098 H            1 FMN150   0.0000
    46 H15          5.8897    50.1199    -5.7154 H            1 FMN150   0.0000
    47 H4'          4.5273    48.0586    -3.4516 H            1 FMN150   0.0000
    48 H17          6.5650    48.2415    -2.8449 H            1 FMN150   0.0000
    49 H5'1         6.0133    48.0283    -5.9410 H            1 FMN150   0.0000
    50 H5'2         4.5704    47.2909    -5.7386 H            1 FMN150   0.0000
@<TRIPOS>BOND
     1    1    2       1
     2    1   18       2
     3    2    3       2
     4    2    4       1
     5    4    5       1
     6    5    6       2
     7    5    7       1
     8    7    8       2
     9    7   18       1
    10    8    9       1
    11    9   10      ar
    12    9   16      ar
    13   10   11      ar
    14   11   12       1
    15   11   13      ar
    16   13   14       1
    17   13   15      ar
    18   15   16      ar
    19   16   17       1
    20   17   18       1
    21   17   19       1
    22   19   20       1
    23   20   21       1
    24   20   22       1
    25   22   23       1
    26   22   24       1
    27   24   25       1
    28   24   26       1
    29   26   27       1
    30   27   28       1
    31   28   29      ar
    32   28   30      ar
    33   28   31      ar
    34    4   32       1
    35   10   33       1
    36   12   34       1
    37   12   35       1
    38   12   36       1
    39   14   37       1
    40   14   38       1
    41   14   39       1
    42   15   40       1
    43   19   41       1
    44   19   42       1
    45   20   43       1
    46   21   44       1
    47   22   45       1
    48   23   46       1
    49   24   47       1
    50   25   48       1
    51   26   49       1
    52   26   50       1
@<TRIPOS>SUBSTRUCTURE
     1 FMN150      1 GROUP             4 A     FMN     0 **** FMN A 150
