@<TRIPOS>MOLECULE
4ure_1PS_1_ligand
   24    24     1     0     0
SMALL
NO_CHARGES


@<TRIPOS>ATOM
     1 N1          17.9190    11.6830    43.6880 N.ar         1 1PS1250   1.0000
     2 C1          18.2690    10.4030    43.3490 C.ar         1 1PS1250   0.0000
     3 C2          18.6560    10.0820    42.0000 C.ar         1 1PS1250   0.0000
     4 C3          17.9310    12.6840    42.7400 C.ar         1 1PS1250   0.0000
     5 C4          18.3200    12.4580    41.4080 C.ar         1 1PS1250   0.0000
     6 C5          18.7250    11.1430    41.0670 C.ar         1 1PS1250   0.0000
     7 C6          17.4700    11.9540    45.0720 C.3          1 1PS1250   0.0000
     8 C7          15.9270    11.7310    45.1340 C.3          1 1PS1250   0.0000
     9 C8          15.2940    11.8040    46.5450 C.3          1 1PS1250   0.0000
    10 S1          13.5850    11.9650    46.6060 S.o2         1 1PS1250   0.0000
    11 O1          13.2030    12.4750    48.0050 O.co2        1 1PS1250   0.0000
    12 O2          12.8490    10.6110    46.5210 O.co2        1 1PS1250   0.0000
    13 O3          13.3600    12.9200    45.4200 O.co2        1 1PS1250  -1.0000
    14 H1          18.2556     9.6849    44.0448 H            1 1PS1250   0.0000
    15 H2          18.8685     9.1423    41.7320 H            1 1PS1250   0.0000
    16 H3          17.6525    13.6057    43.0100 H            1 1PS1250   0.0000
    17 H4          18.3114    13.1933    40.7303 H            1 1PS1250   0.0000
    18 H5          19.0675    10.9612    40.1453 H            1 1PS1250   0.0000
    19 H6          17.6861    12.8985    45.3196 H            1 1PS1250   0.0000
    20 H7          17.9283    11.3302    45.7052 H            1 1PS1250   0.0000
    21 H8          15.7320    10.8258    44.7563 H            1 1PS1250   0.0000
    22 H9          15.4925    12.4299    44.5659 H            1 1PS1250   0.0000
    23 H10         15.6911    12.5914    47.0165 H            1 1PS1250   0.0000
    24 H11         15.5385    10.9656    47.0322 H            1 1PS1250   0.0000
@<TRIPOS>BOND
     1    1    2      ar
     2    1    4      ar
     3    1    7       1
     4    2    3      ar
     5    3    6      ar
     6    4    5      ar
     7    5    6      ar
     8    7    8       1
     9    8    9       1
    10    9   10       1
    11   10   11      ar
    12   10   12      ar
    13   10   13      ar
    14    2   14       1
    15    3   15       1
    16    4   16       1
    17    5   17       1
    18    6   18       1
    19    7   19       1
    20    7   20       1
    21    8   21       1
    22    8   22       1
    23    9   23       1
    24    9   24       1
@<TRIPOS>SUBSTRUCTURE
     1 1PS1250     1 GROUP             4 B     1PS     0 **** 1PS B1250
