@<TRIPOS>MOLECULE
./coach420/1tei/ligand.pdb
 62 66 0 0 0
SMALL
GASTEIGER

@<TRIPOS>ATOM
      1  C1        43.7960    4.0640  -41.0170 C.3   240  NAG240      0.2587
      2  C2        45.0300    4.7930  -40.5430 C.3   240  NAG240      0.1842
      3  C3        46.2620    3.9290  -40.7610 C.3   240  NAG240      0.2094
      4  C4        46.0650    2.5530  -40.1390 C.3   240  NAG240      0.2136
      5  C5        44.8260    1.9460  -40.7860 C.3   240  NAG240      0.1834
      6  C6        44.4660    0.5120  -40.4530 C.3   240  NAG240      0.2142
      7  C7        45.4240    7.1690  -40.7800 C.2   240  NAG240      0.2420
      8  C8        45.4610    8.3470  -41.7380 C.3   240  NAG240      0.0964
      9  N2        45.1150    6.0050  -41.3310 N.am  240  NAG240     -0.1992
     10  O3        47.3900    4.5560  -40.1920 O.3   240  NAG240     -0.2183
     11  O4        47.2110    1.7590  -40.4010 O.3   240  NAG240     -0.2176
     12  O5        43.7090    2.7620  -40.4620 O.3   240  NAG240     -0.3262
     13  O6        43.9460    0.4050  -39.1470 O.3   240  NAG240     -0.2176
     14  O7        45.7130    7.3040  -39.5940 O.2   240  NAG240     -0.2733
     15  C1        40.8280    5.6740  -41.9790 C.3   241  MAN241      0.2663
     16  C2        41.4900    4.4390  -41.3850 C.3   241  MAN241      0.2066
     17  C3        40.5460    3.6980  -40.4260 C.3   241  MAN241      0.2166
     18  C4        39.9250    4.6760  -39.4180 C.3   241  MAN241      0.2143
     19  C5        39.3150    5.8750  -40.1520 C.3   241  MAN241      0.1835
     20  C6        38.7460    6.9210  -39.2440 C.3   241  MAN241      0.2142
     21  O2        42.6840    4.8340  -40.7070 O.3   241  MAN241     -0.3237
     22  O3        41.2440    2.6720  -39.7330 O.3   241  MAN241     -0.2175
     23  O4        38.9250    4.0120  -38.6570 O.3   241  MAN241     -0.2176
     24  O5        40.3260    6.5150  -40.9520 O.3   241  MAN241     -0.3257
     25  O6        39.7790    7.6360  -38.5950 O.3   241  MAN241     -0.2176
     26  C1        37.9990    3.7610  -45.9930 C.3   242  MAN242      0.3022
     27  C2        36.6890    3.3280  -45.3390 C.3   242  MAN242      0.2403
     28  C3        36.0130    4.5000  -44.5850 C.3   242  MAN242      0.1859
     29  C4        37.0090    5.3210  -43.7590 C.3   242  MAN242      0.2111
     30  C5        38.2470    5.6480  -44.5530 C.3   242  MAN242      0.1802
     31  C6        39.2510    6.2830  -43.6250 C.3   242  MAN242      0.1770
     32  O1        37.7400    4.6300  -47.0370 O.3   242  MAN242     -0.1869
     33  O2        36.9220    2.2230  -44.4710 O.3   242  MAN242     -0.2149
     34  O3        34.9860    3.9950  -43.7070 O.3   242  MAN242     -0.3256
     35  O4        36.4120    6.5460  -43.3490 O.3   242  MAN242     -0.2177
     36  O5        38.8410    4.4390  -45.0580 O.3   242  MAN242     -0.3237
     37  O6        39.8130    5.2400  -42.8180 O.3   242  MAN242     -0.3259
     38  C1        33.6760    4.0620  -44.1820 C.3   243  MAN243      0.2663
     39  C2        32.6980    3.6340  -43.0850 C.3   243  MAN243      0.2066
     40  C3        32.7360    2.1300  -42.8700 C.3   243  MAN243      0.2166
     41  C4        32.5040    1.4160  -44.2000 C.3   243  MAN243      0.2143
     42  C5        33.6050    1.8680  -45.1390 C.3   243  MAN243      0.1835
     43  C6        33.5860    1.1890  -46.4870 C.3   243  MAN243      0.2142
     44  O2        31.3840    3.9840  -43.4950 O.3   243  MAN243     -0.3237
     45  O3        31.7510    1.7400  -41.9270 O.3   243  MAN243     -0.2175
     46  O4        32.5700    0.0020  -44.0120 O.3   243  MAN243     -0.2176
     47  O5        33.4990    3.2810  -45.3520 O.3   243  MAN243     -0.3257
     48  O6        32.5430    1.7060  -47.2920 O.3   243  MAN243     -0.2176
     49  C1        30.9830    5.2990  -43.2810 C.3   244  NAG244      0.2587
     50  C2        29.8330    5.6100  -44.2530 C.3   244  NAG244      0.1842
     51  C3        29.2360    7.0000  -43.9820 C.3   244  NAG244      0.2094
     52  C4        28.9000    7.1660  -42.5080 C.3   244  NAG244      0.2136
     53  C5        30.1000    6.8090  -41.6170 C.3   244  NAG244      0.1834
     54  C6        29.6880    6.7540  -40.1640 C.3   244  NAG244      0.2142
     55  C7        29.8140    4.7300  -46.5120 C.2   244  NAG244      0.2420
     56  C8        30.4480    4.7510  -47.8840 C.3   244  NAG244      0.0964
     57  N2        30.3530    5.5450  -45.6070 N.am  244  NAG244     -0.1992
     58  O3        28.0460    7.1830  -44.7370 O.3   244  NAG244     -0.2183
     59  O4        28.5010    8.5060  -42.2690 O.3   244  NAG244     -0.2176
     60  O5        30.5880    5.4900  -41.9290 O.3   244  NAG244     -0.3262
     61  O6        28.7290    5.7230  -39.9490 O.3   244  NAG244     -0.2176
     62  O7        28.8350    4.0130  -46.2860 O.2   244  NAG244     -0.2733
@<TRIPOS>BOND
     1     1    21    1
     2     1     2    1
     3     1    12    1
     4     2     9    1
     5     2     3    1
     6     3    10    1
     7     3     4    1
     8     4     5    1
     9     4    11    1
    10     5    12    1
    11     5     6    1
    12     6    13    1
    13     7     8    1
    14     7     9   am
    15     7    14    2
    16    15    37    1
    17    15    16    1
    18    15    24    1
    19    16    21    1
    20    16    17    1
    21    17    22    1
    22    17    18    1
    23    18    19    1
    24    18    23    1
    25    19    24    1
    26    19    20    1
    27    20    25    1
    28    26    32    1
    29    26    27    1
    30    26    36    1
    31    27    28    1
    32    27    33    1
    33    28    29    1
    34    28    34    1
    35    29    30    1
    36    29    35    1
    37    30    36    1
    38    30    31    1
    39    31    37    1
    40    34    38    1
    41    38    47    1
    42    38    39    1
    43    39    44    1
    44    39    40    1
    45    40    41    1
    46    40    45    1
    47    41    42    1
    48    41    46    1
    49    42    43    1
    50    42    47    1
    51    43    48    1
    52    44    49    1
    53    49    50    1
    54    49    60    1
    55    50    57    1
    56    50    51    1
    57    51    58    1
    58    51    52    1
    59    52    59    1
    60    52    53    1
    61    53    60    1
    62    53    54    1
    63    54    61    1
    64    55    56    1
    65    55    62    2
    66    55    57   am
