@<TRIPOS>MOLECULE
1z59_ADP_1_ligand
   39    41     1     0     0
SMALL
NO_CHARGES


@<TRIPOS>ATOM
     1 PB          23.0520    51.2570    16.7720 P.3          1 ADP2001   0.0000
     2 O1B         21.6950    51.1870    16.1470 O.co2        1 ADP2001   0.0000
     3 O2B         23.9110    50.0700    16.2600 O.co2        1 ADP2001  -1.0000
     4 O3B         22.9270    51.2300    18.3140 O.co2        1 ADP2001  -1.0000
     5 PA          23.2470    53.7960    15.6100 P.3          1 ADP2001   0.0000
     6 O1A         24.3800    54.6460    15.1930 O.co2        1 ADP2001   0.0000
     7 O2A         22.4070    53.2910    14.4280 O.co2        1 ADP2001  -1.0000
     8 O3A         23.8510    52.5980    16.4240 O.3          1 ADP2001   0.0000
     9 O5'         22.3460    54.6340    16.6630 O.3          1 ADP2001   0.0000
    10 C5'         22.8790    55.1320    17.8740 C.3          1 ADP2001   0.0000
    11 C4'         21.8160    55.1140    18.9730 C.3          1 ADP2001   0.0000
    12 O4'         20.8830    56.1670    18.7970 O.3          1 ADP2001   0.0000
    13 C3'         20.9760    53.8450    18.9830 C.3          1 ADP2001   0.0000
    14 O3'         21.5980    52.7940    19.6830 O.3          1 ADP2001   0.0000
    15 C2'         19.7080    54.3110    19.6470 C.3          1 ADP2001   0.0000
    16 O2'         19.8520    54.2860    21.0460 O.3          1 ADP2001   0.0000
    17 C1'         19.6020    55.7650    19.2240 C.3          1 ADP2001   0.0000
    18 N9          18.6010    55.9330    18.1450 N.pl3        1 ADP2001   0.0000
    19 C8          18.8310    56.2130    16.8200 C.2          1 ADP2001   0.0000
    20 N7          17.6400    56.3210    16.1880 N.2          1 ADP2001   0.0000
    21 C5          16.6510    56.1240    17.0820 C.ar         1 ADP2001   0.0000
    22 C6          15.2650    56.1100    16.9650 C.ar         1 ADP2001   0.0000
    23 N6          14.6820    56.1990    15.7610 N.pl3        1 ADP2001   0.0000
    24 N1          14.5060    55.8740    18.0910 N.ar         1 ADP2001   0.0000
    25 C2          15.1080    55.6480    19.3140 C.ar         1 ADP2001   0.0000
    26 N3          16.4840    55.6430    19.4140 N.ar         1 ADP2001   0.0000
    27 C4          17.2420    55.8790    18.3210 C.ar         1 ADP2001   0.0000
    28 H5'1        23.1923    56.0713    17.7342 H            1 ADP2001   0.0000
    29 H5'2        23.6511    54.5612    18.1533 H            1 ADP2001   0.0000
    30 H4'         22.2625    55.2177    19.8617 H            1 ADP2001   0.0000
    31 H3'         20.7821    53.5593    18.0445 H            1 ADP2001   0.0000
    32 H5          22.1633    52.2622    19.0525 H            1 ADP2001   0.0000
    33 H2'         18.9160    53.7794    19.3468 H            1 ADP2001   0.0000
    34 H7          19.0036    54.5975    21.4740 H            1 ADP2001   0.0000
    35 H1'         19.3306    56.3172    20.0123 H            1 ADP2001   0.0000
    36 H9          19.7293    56.3193    16.3937 H            1 ADP2001   0.0000
    37 H10         13.6849    56.1882    15.6863 H            1 ADP2001   0.0000
    38 H11         15.2443    56.2762    14.9377 H            1 ADP2001   0.0000
    39 H12         14.5467    55.4882    20.1260 H            1 ADP2001   0.0000
@<TRIPOS>BOND
     1    1    2      ar
     2    1    3      ar
     3    1    4      ar
     4    1    8       1
     5    5    6      ar
     6    5    7      ar
     7    5    8       1
     8    5    9       1
     9    9   10       1
    10   10   11       1
    11   11   12       1
    12   11   13       1
    13   12   17       1
    14   13   14       1
    15   13   15       1
    16   15   16       1
    17   15   17       1
    18   17   18       1
    19   18   19       1
    20   18   27       1
    21   19   20       2
    22   20   21       1
    23   21   22      ar
    24   21   27      ar
    25   22   23       1
    26   22   24      ar
    27   24   25      ar
    28   25   26      ar
    29   26   27      ar
    30   25   39       1
    31   23   38       1
    32   23   37       1
    33   10   28       1
    34   10   29       1
    35   11   30       1
    36   13   31       1
    37   14   32       1
    38   15   33       1
    39   16   34       1
    40   17   35       1
    41   19   36       1
@<TRIPOS>SUBSTRUCTURE
     1 ADP2001     1 GROUP             4 A     ADP     0 **** ADP A2001
