@<TRIPOS>MOLECULE
3q3n_NPO_2_ligand
   15    15     1     0     0
SMALL
NO_CHARGES


@<TRIPOS>ATOM
     1 C1          57.1820    29.0470   -21.7700 C.ar         1 NPO512   0.0000
     2 C2          56.3900    30.1220   -22.1530 C.ar         1 NPO512   0.0000
     3 C3          56.6160    31.3680   -21.5960 C.ar         1 NPO512   0.0000
     4 C4          57.6350    31.5220   -20.6650 C.ar         1 NPO512   0.0000
     5 C5          58.4230    30.4410   -20.2930 C.ar         1 NPO512   0.0000
     6 C6          58.1980    29.1930   -20.8450 C.ar         1 NPO512   0.0000
     7 OH          57.8670    32.7540   -20.1010 O.3          1 NPO512   0.0000
     8 N1          56.9480    27.7710   -22.3420 N.2          1 NPO512   1.0000
     9 O2          57.6910    26.7670   -21.9860 O.co2        1 NPO512   0.0000
    10 O3          56.0480    27.6440   -23.1620 O.co2        1 NPO512  -1.0000
    11 H1          55.6617    29.9961   -22.8266 H            1 NPO512   0.0000
    12 H2          56.0515    32.1497   -21.8610 H            1 NPO512   0.0000
    13 H3          59.1556    30.5652   -19.6238 H            1 NPO512   0.0000
    14 H4          58.7607    28.4102   -20.5794 H            1 NPO512   0.0000
    15 HH          58.6002    32.8669   -19.4305 H            1 NPO512   0.0000
@<TRIPOS>BOND
     1    1    2      ar
     2    1    6      ar
     3    1    8       1
     4    2    3      ar
     5    3    4      ar
     6    4    5      ar
     7    4    7       1
     8    5    6      ar
     9    8    9      ar
    10    8   10      ar
    11    2   11       1
    12    3   12       1
    13    5   13       1
    14    6   14       1
    15    7   15       1
@<TRIPOS>SUBSTRUCTURE
     1 NPO512      1 GROUP             4 A     NPO     0 **** NPO A 512
