@<TRIPOS>MOLECULE
1p0f_NAP_2_ligand
   73    77     1     0     0
SMALL
NO_CHARGES


@<TRIPOS>ATOM
     1 PA         -18.2310    37.7450    66.3540 P.3          1 NAP3292   0.0000
     2 O1A        -18.5980    36.4130    66.6500 O.co2        1 NAP3292   0.0000
     3 O2A        -19.0810    38.9790    66.5860 O.co2        1 NAP3292  -1.0000
     4 O5B        -17.8080    37.8510    64.8190 O.3          1 NAP3292   0.0000
     5 C5B        -16.8550    36.9260    64.2400 C.3          1 NAP3292   0.0000
     6 C4B        -17.1780    37.1290    62.7800 C.3          1 NAP3292   0.0000
     7 O4B        -16.2440    36.2830    61.9660 O.3          1 NAP3292   0.0000
     8 C3B        -18.5800    36.6390    62.3100 C.3          1 NAP3292   0.0000
     9 O3B        -19.4510    37.7660    62.3440 O.3          1 NAP3292   0.0000
    10 C2B        -18.3220    36.1050    60.9210 C.3          1 NAP3292   0.0000
    11 O2B        -18.3100    37.1180    59.9260 O.3          1 NAP3292   0.0000
    12 C1B        -16.9140    35.4570    61.0330 C.3          1 NAP3292   0.0000
    13 N9A        -17.0120    34.0380    61.3990 N.pl3        1 NAP3292   0.0000
    14 C8A        -17.4250    33.3800    62.5490 C.2          1 NAP3292   0.0000
    15 N7A        -17.3630    32.0580    62.4720 N.2          1 NAP3292   0.0000
    16 C5A        -16.8750    31.8350    61.1880 C.ar         1 NAP3292   0.0000
    17 C6A        -16.5950    30.6240    60.5180 C.ar         1 NAP3292   0.0000
    18 N6A        -16.7460    29.3710    61.0010 N.pl3        1 NAP3292   0.0000
    19 N1A        -16.1030    30.7210    59.2010 N.ar         1 NAP3292   0.0000
    20 C2A        -15.9040    31.9720    58.5880 C.ar         1 NAP3292   0.0000
    21 N3A        -16.1730    33.1760    59.2250 N.ar         1 NAP3292   0.0000
    22 C4A        -16.6570    33.0590    60.5230 C.ar         1 NAP3292   0.0000
    23 O3         -16.8770    38.1000    67.0870 O.3          1 NAP3292   0.0000
    24 PN         -16.3390    39.5140    67.4680 P.3          1 NAP3292   0.0000
    25 O1N        -15.6840    40.3560    66.4680 O.co2        1 NAP3292   0.0000
    26 O2N        -16.2030    39.7160    68.9370 O.co2        1 NAP3292  -1.0000
    27 O5D        -14.9160    38.7000    67.5470 O.3          1 NAP3292   0.0000
    28 C5D        -14.0690    38.3890    66.3560 C.3          1 NAP3292   0.0000
    29 C4D        -12.8440    37.5450    66.7400 C.3          1 NAP3292   0.0000
    30 O4D        -11.7970    38.3760    67.3110 O.3          1 NAP3292   0.0000
    31 C3D        -13.0630    36.3990    67.7930 C.3          1 NAP3292   0.0000
    32 O3D        -12.3500    35.2170    67.3900 O.3          1 NAP3292   0.0000
    33 C2D        -12.5180    36.9940    69.0700 C.3          1 NAP3292   0.0000
    34 O2D        -12.1240    36.0330    70.0150 O.3          1 NAP3292   0.0000
    35 C1D        -11.3700    37.8010    68.5920 C.3          1 NAP3292   0.0000
    36 N1N        -10.9760    38.9970    69.3870 N.ar         1 NAP3292   1.0000
    37 C2N         -9.6290    39.4570    69.4530 C.ar         1 NAP3292   0.0000
    38 C3N         -9.3530    40.5890    70.2240 C.ar         1 NAP3292   0.0000
    39 C7N         -7.9120    41.1080    70.3090 C.2          1 NAP3292   0.0000
    40 O7N         -7.7310    42.0860    71.0030 O.2          1 NAP3292   0.0000
    41 N7N         -6.9390    40.5200    69.6660 N.am         1 NAP3292   0.0000
    42 C4N        -10.4180    41.2910    70.9520 C.ar         1 NAP3292   0.0000
    43 C5N        -11.7470    40.7930    70.8480 C.ar         1 NAP3292   0.0000
    44 C6N        -12.0520    39.6480    70.0720 C.ar         1 NAP3292   0.0000
    45 P2B        -19.3000    37.1500    58.6440 P.3          1 NAP3292   0.0000
    46 O1X        -18.9990    38.4670    57.9260 O.co2        1 NAP3292   0.0000
    47 O2X        -18.8470    35.9350    57.9020 O.co2        1 NAP3292  -1.0000
    48 O3X        -20.7140    37.1300    59.1820 O.co2        1 NAP3292  -1.0000
    49 H5B1       -17.0221    35.9845    64.5328 H            1 NAP3292   0.0000
    50 H5B2       -15.9113    37.1789    64.4531 H            1 NAP3292   0.0000
    51 H4B        -17.0585    38.0920    62.5385 H            1 NAP3292   0.0000
    52 H3B        -18.9188    35.9136    62.9091 H            1 NAP3292   0.0000
    53 H5         -19.8828    37.8265    63.2439 H            1 NAP3292   0.0000
    54 H2B        -19.0015    35.4083    60.6911 H            1 NAP3292   0.0000
    55 H1B        -16.4538    35.5308    60.1483 H            1 NAP3292   0.0000
    56 H8A        -17.7422    33.8619    63.3658 H            1 NAP3292   0.0000
    57 H6A1       -16.5133    28.5837    60.4301 H            1 NAP3292   0.0000
    58 H6A2       -17.0905    29.2311    61.9293 H            1 NAP3292   0.0000
    59 H2A        -15.5532    31.9948    57.6518 H            1 NAP3292   0.0000
    60 H5D1       -13.7572    39.2463    65.9464 H            1 NAP3292   0.0000
    61 H5D2       -14.6173    37.8819    65.6910 H            1 NAP3292   0.0000
    62 H4D        -12.4841    37.1292    65.9048 H            1 NAP3292   0.0000
    63 H3D        -14.0380    36.1997    67.8914 H            1 NAP3292   0.0000
    64 H16        -12.4950    34.4938    68.0652 H            1 NAP3292   0.0000
    65 H2D        -13.2041    37.5981    69.4754 H            1 NAP3292   0.0000
    66 H18        -12.2861    35.1175    69.6468 H            1 NAP3292   0.0000
    67 H1D        -10.5754    37.2105    68.4509 H            1 NAP3292   0.0000
    68 H2N         -8.9000    38.9819    68.9602 H            1 NAP3292   0.0000
    69 H7N1        -6.0069    40.8755    69.7357 H            1 NAP3292   0.0000
    70 H7N2        -7.1261    39.7143    69.1040 H            1 NAP3292   0.0000
    71 H4N        -10.2145    42.0980    71.5064 H            1 NAP3292   0.0000
    72 H5N        -12.4835    41.2629    71.3346 H            1 NAP3292   0.0000
    73 H6N        -12.9889    39.3051    70.0046 H            1 NAP3292   0.0000
@<TRIPOS>BOND
     1    1    2      ar
     2    1    3      ar
     3    1    4       1
     4    1   23       1
     5    4    5       1
     6    5    6       1
     7    6    7       1
     8    6    8       1
     9    7   12       1
    10    8    9       1
    11    8   10       1
    12   10   11       1
    13   10   12       1
    14   11   45       1
    15   12   13       1
    16   13   14       1
    17   13   22       1
    18   14   15       2
    19   15   16       1
    20   16   17      ar
    21   16   22      ar
    22   17   18       1
    23   17   19      ar
    24   19   20      ar
    25   20   21      ar
    26   21   22      ar
    27   23   24       1
    28   24   25      ar
    29   24   26      ar
    30   24   27       1
    31   27   28       1
    32   28   29       1
    33   29   30       1
    34   29   31       1
    35   30   35       1
    36   31   32       1
    37   31   33       1
    38   33   34       1
    39   33   35       1
    40   35   36       1
    41   36   37      ar
    42   36   44      ar
    43   37   38      ar
    44   38   39       1
    45   38   42      ar
    46   39   40       2
    47   39   41      am
    48   42   43      ar
    49   43   44      ar
    50   45   46      ar
    51   45   47      ar
    52   45   48      ar
    53   43   72       1
    54    5   49       1
    55    5   50       1
    56    6   51       1
    57    8   52       1
    58    9   53       1
    59   10   54       1
    60   12   55       1
    61   14   56       1
    62   18   57       1
    63   18   58       1
    64   20   59       1
    65   44   73       1
    66   28   60       1
    67   28   61       1
    68   29   62       1
    69   31   63       1
    70   32   64       1
    71   33   65       1
    72   34   66       1
    73   35   67       1
    74   37   68       1
    75   41   69       1
    76   41   70       1
    77   42   71       1
@<TRIPOS>SUBSTRUCTURE
     1 NAP3292     1 GROUP             4 B     NAP     0 **** NAP B3292
