@<TRIPOS>MOLECULE
3l1c_ADP_1_ligand
   39    41     1     0     0
SMALL
NO_CHARGES


@<TRIPOS>ATOM
     1 PB          -0.1990    45.9780    61.9140 P.3          1 ADP998   0.0000
     2 O1B          0.9140    46.8780    62.3460 O.co2        1 ADP998   0.0000
     3 O2B          0.3360    44.5310    61.3760 O.co2        1 ADP998  -1.0000
     4 O3B         -1.1560    45.7660    63.0310 O.co2        1 ADP998  -1.0000
     5 PA          -2.2010    47.4920    60.5100 P.3          1 ADP998   0.0000
     6 O1A         -3.2900    46.6790    59.9690 O.co2        1 ADP998   0.0000
     7 O2A         -2.5510    48.0560    61.7960 O.co2        1 ADP998  -1.0000
     8 O3A         -0.9140    46.6140    60.6810 O.3          1 ADP998   0.0000
     9 O5'         -1.7560    48.6320    59.4910 O.3          1 ADP998   0.0000
    10 C5'         -1.3650    48.3340    58.1290 C.3          1 ADP998   0.0000
    11 C4'         -2.1860    49.2050    57.1380 C.3          1 ADP998   0.0000
    12 O4'         -2.8260    48.3150    56.2280 O.3          1 ADP998   0.0000
    13 C3'         -3.3140    50.0210    57.7650 C.3          1 ADP998   0.0000
    14 O3'         -3.4620    51.2920    57.1280 O.3          1 ADP998   0.0000
    15 C2'         -4.5720    49.2410    57.5240 C.3          1 ADP998   0.0000
    16 O2'         -5.7530    50.0560    57.4500 O.3          1 ADP998   0.0000
    17 C1'         -4.2490    48.4990    56.2470 C.3          1 ADP998   0.0000
    18 N9          -4.9160    47.1570    56.1390 N.pl3        1 ADP998   0.0000
    19 C8          -4.4970    46.0320    56.7500 C.2          1 ADP998   0.0000
    20 N7          -5.2930    45.0180    56.4310 N.2          1 ADP998   0.0000
    21 C5          -6.2330    45.4670    55.6240 C.ar         1 ADP998   0.0000
    22 C6          -7.3300    44.9070    54.9690 C.ar         1 ADP998   0.0000
    23 N6          -7.6010    43.6060    55.1190 N.pl3        1 ADP998   0.0000
    24 N1          -8.1310    45.6910    54.1710 N.ar         1 ADP998   0.0000
    25 C2          -7.8810    47.0120    53.9930 C.ar         1 ADP998   0.0000
    26 N3          -6.8240    47.5610    54.6260 N.ar         1 ADP998   0.0000
    27 C4          -5.9910    46.8500    55.4300 C.ar         1 ADP998   0.0000
    28 H5'1        -1.5353    47.3670    57.9396 H            1 ADP998   0.0000
    29 H5'2        -0.3912    48.5298    58.0136 H            1 ADP998   0.0000
    30 H4'         -1.5707    49.8130    56.6362 H            1 ADP998   0.0000
    31 H3'         -3.1576    50.1377    58.7458 H            1 ADP998   0.0000
    32 H5          -4.3817    51.3666    56.7426 H            1 ADP998   0.0000
    33 H2'         -4.6852    48.5765    58.2626 H            1 ADP998   0.0000
    34 H7          -6.4192    49.6231    56.8428 H            1 ADP998   0.0000
    35 H1'         -4.5168    49.0616    55.4648 H            1 ADP998   0.0000
    36 H9          -3.7032    45.9696    57.3549 H            1 ADP998   0.0000
    37 H10         -8.3867    43.2017    54.6508 H            1 ADP998   0.0000
    38 H11         -7.0180    43.0375    55.6994 H            1 ADP998   0.0000
    39 H12         -8.4683    47.5677    53.4045 H            1 ADP998   0.0000
@<TRIPOS>BOND
     1    1    2      ar
     2    1    3      ar
     3    1    4      ar
     4    1    8       1
     5    5    6      ar
     6    5    7      ar
     7    5    8       1
     8    5    9       1
     9    9   10       1
    10   10   11       1
    11   11   12       1
    12   11   13       1
    13   12   17       1
    14   13   14       1
    15   13   15       1
    16   15   16       1
    17   15   17       1
    18   17   18       1
    19   18   19       1
    20   18   27       1
    21   19   20       2
    22   20   21       1
    23   21   22      ar
    24   21   27      ar
    25   22   23       1
    26   22   24      ar
    27   24   25      ar
    28   25   26      ar
    29   26   27      ar
    30   25   39       1
    31   23   38       1
    32   23   37       1
    33   10   28       1
    34   10   29       1
    35   11   30       1
    36   13   31       1
    37   14   32       1
    38   15   33       1
    39   16   34       1
    40   17   35       1
    41   19   36       1
@<TRIPOS>SUBSTRUCTURE
     1 ADP998      1 GROUP             4 A     ADP     0 **** ADP A 998
