@<TRIPOS>MOLECULE
5buk_FAD_1_ligand
   84    89     1     0     0
SMALL
NO_CHARGES


@<TRIPOS>ATOM
     1 PA          25.3320    72.8180    31.3840 P.3          1 FAD501   0.0000
     2 O1A         25.3600    73.2680    32.7210 O.co2        1 FAD501   0.0000
     3 O2A         26.4180    73.1130    30.5190 O.co2        1 FAD501  -1.0000
     4 O5B         24.0980    73.4930    30.7140 O.3          1 FAD501   0.0000
     5 C5B         22.8320    73.5430    31.2700 C.3          1 FAD501   0.0000
     6 C4B         22.0410    74.7990    30.9380 C.3          1 FAD501   0.0000
     7 O4B         20.7560    74.6610    31.4600 O.3          1 FAD501   0.0000
     8 C3B         22.6000    76.0760    31.5380 C.3          1 FAD501   0.0000
     9 O3B         22.9880    76.9470    30.5170 O.3          1 FAD501   0.0000
    10 C2B         21.4780    76.6110    32.4040 C.3          1 FAD501   0.0000
    11 O2B         21.3560    77.9880    32.3880 O.3          1 FAD501   0.0000
    12 C1B         20.2600    75.9000    31.8540 C.3          1 FAD501   0.0000
    13 N9A         19.1660    75.6990    32.8120 N.pl3        1 FAD501   0.0000
    14 C8A         19.2340    75.1860    34.0170 C.2          1 FAD501   0.0000
    15 N7A         18.0530    75.1180    34.6110 N.2          1 FAD501   0.0000
    16 C5A         17.1810    75.6080    33.7470 C.ar         1 FAD501   0.0000
    17 C6A         15.7420    75.8190    33.7130 C.ar         1 FAD501   0.0000
    18 N6A         15.0000    75.5050    34.7630 N.pl3        1 FAD501   0.0000
    19 N1A         15.2060    76.3500    32.6330 N.ar         1 FAD501   0.0000
    20 C2A         15.9580    76.6790    31.6100 C.ar         1 FAD501   0.0000
    21 N3A         17.2640    76.4990    31.5480 N.ar         1 FAD501   0.0000
    22 C4A         17.9220    75.9690    32.5590 C.ar         1 FAD501   0.0000
    23 N1          33.7480    68.8640    31.6790 N.2          1 FAD501   0.0000
    24 C2          34.6390    68.6630    30.7150 C.2          1 FAD501   0.0000
    25 O2          34.2840    68.1260    29.7070 O.2          1 FAD501   0.0000
    26 N3          35.8810    69.0620    30.8350 N.pl3        1 FAD501   0.0000
    27 C4          36.3550    69.6660    31.9000 C.2          1 FAD501   0.0000
    28 O4          37.5030    70.0190    31.9630 O.2          1 FAD501   0.0000
    29 C4X         35.4580    69.9210    33.0140 C.2          1 FAD501   0.0000
    30 N5          35.8140    70.5490    34.1420 N.2          1 FAD501   0.0000
    31 C5X         34.9430    70.7800    35.1200 C.ar         1 FAD501   0.0000
    32 C6          35.2790    71.4220    36.2820 C.ar         1 FAD501   0.0000
    33 C7          34.3730    71.6440    37.2910 C.ar         1 FAD501   0.0000
    34 C7M         34.7930    72.3350    38.5470 C.3          1 FAD501   0.0000
    35 C8          32.9780    71.2170    37.1230 C.ar         1 FAD501   0.0000
    36 C8M         31.9610    71.4410    38.1930 C.3          1 FAD501   0.0000
    37 C9          32.6330    70.6000    35.9590 C.ar         1 FAD501   0.0000
    38 C9A         33.5450    70.3500    34.9550 C.ar         1 FAD501   0.0000
    39 N10         33.1680    69.7080    33.7900 N.pl3        1 FAD501   0.0000
    40 C10         34.0840    69.4860    32.8030 C.2          1 FAD501   0.0000
    41 C1'         31.8120    69.2680    33.6180 C.3          1 FAD501   0.0000
    42 C2'         31.0090    70.0810    32.6400 C.3          1 FAD501   0.0000
    43 O2'         31.0280    71.4390    32.9720 O.3          1 FAD501   0.0000
    44 C3'         29.5770    69.5510    32.5380 C.3          1 FAD501   0.0000
    45 O3'         29.5780    68.1690    32.3050 O.3          1 FAD501   0.0000
    46 C4'         28.8550    70.2070    31.3780 C.3          1 FAD501   0.0000
    47 O4'         28.6510    71.5650    31.6080 O.3          1 FAD501   0.0000
    48 C5'         27.5580    69.4610    31.0690 C.3          1 FAD501   0.0000
    49 O5'         26.7500    70.1570    30.1600 O.3          1 FAD501   0.0000
    50 P           25.2110    70.2610    30.2520 P.3          1 FAD501   0.0000
    51 O1P         24.7550    70.8480    29.0650 O.co2        1 FAD501   0.0000
    52 O2P         24.6440    69.0340    30.6850 O.co2        1 FAD501  -1.0000
    53 O3P         25.0440    71.2900    31.3960 O.3          1 FAD501   0.0000
    54 H5B1        22.9260    73.4878    32.2640 H            1 FAD501   0.0000
    55 H5B2        22.3153    72.7531    30.9396 H            1 FAD501   0.0000
    56 H4B         21.9839    74.8993    29.9447 H            1 FAD501   0.0000
    57 H3B         23.3903    75.8586    32.1108 H            1 FAD501   0.0000
    58 H5          22.1957    77.1677    29.9481 H            1 FAD501   0.0000
    59 H2B         21.6276    76.3117    33.3464 H            1 FAD501   0.0000
    60 H7          21.1773    78.2960    31.4535 H            1 FAD501   0.0000
    61 H1B         19.9178    76.3930    31.0541 H            1 FAD501   0.0000
    62 H8A         20.0860    74.8793    34.4413 H            1 FAD501   0.0000
    63 H6A1        14.0110    75.6507    34.7379 H            1 FAD501   0.0000
    64 H6A2        15.4284    75.1221    35.5814 H            1 FAD501   0.0000
    65 H2A         15.5093    77.0964    30.8198 H            1 FAD501   0.0000
    66 H13         36.5045    68.8969    30.0708 H            1 FAD501   0.0000
    67 H14         36.2192    71.7413    36.4007 H            1 FAD501   0.0000
    68 H7M1        34.0098    72.4095    39.1643 H            1 FAD501   0.0000
    69 H7M2        35.5182    71.8084    38.9906 H            1 FAD501   0.0000
    70 H7M3        35.1321    73.2496    38.3269 H            1 FAD501   0.0000
    71 H8M1        31.0768    71.0833    37.8926 H            1 FAD501   0.0000
    72 H8M2        32.2455    70.9689    39.0274 H            1 FAD501   0.0000
    73 H8M3        31.8796    72.4208    38.3756 H            1 FAD501   0.0000
    74 H21         31.6828    70.3176    35.8273 H            1 FAD501   0.0000
    75 H1'1        31.3556    69.3094    34.5068 H            1 FAD501   0.0000
    76 H1'2        31.8297    68.3214    33.2962 H            1 FAD501   0.0000
    77 H2'         31.4347    69.9819    31.7406 H            1 FAD501   0.0000
    78 H25         30.2635    71.6434    33.5834 H            1 FAD501   0.0000
    79 H3'         29.0879    69.7456    33.3883 H            1 FAD501   0.0000
    80 H27         28.7577    67.7625    32.7073 H            1 FAD501   0.0000
    81 H4'         29.4449    70.1256    30.5747 H            1 FAD501   0.0000
    82 H29         27.8170    71.8604    31.1419 H            1 FAD501   0.0000
    83 H5'1        27.0490    69.3339    31.9204 H            1 FAD501   0.0000
    84 H5'2        27.7850    68.5682    30.6799 H            1 FAD501   0.0000
@<TRIPOS>BOND
     1    1    2      ar
     2    1    3      ar
     3    1    4       1
     4    1   53       1
     5    4    5       1
     6    5    6       1
     7    6    7       1
     8    6    8       1
     9    7   12       1
    10    8    9       1
    11    8   10       1
    12   10   11       1
    13   10   12       1
    14   12   13       1
    15   13   14       1
    16   13   22       1
    17   14   15       2
    18   15   16       1
    19   16   17      ar
    20   16   22      ar
    21   17   18       1
    22   17   19      ar
    23   19   20      ar
    24   20   21      ar
    25   21   22      ar
    26   23   24       1
    27   23   40       2
    28   24   25       2
    29   24   26       1
    30   26   27       1
    31   27   28       2
    32   27   29       1
    33   29   30       2
    34   29   40       1
    35   30   31       1
    36   31   32      ar
    37   31   38      ar
    38   32   33      ar
    39   33   34       1
    40   33   35      ar
    41   35   36       1
    42   35   37      ar
    43   37   38      ar
    44   38   39       1
    45   39   40       1
    46   39   41       1
    47   41   42       1
    48   42   43       1
    49   42   44       1
    50   44   45       1
    51   44   46       1
    52   46   47       1
    53   46   48       1
    54   48   49       1
    55   49   50       1
    56   50   51      ar
    57   50   52      ar
    58   50   53       1
    59   48   84       1
    60    5   54       1
    61    5   55       1
    62    6   56       1
    63    8   57       1
    64    9   58       1
    65   10   59       1
    66   11   60       1
    67   12   61       1
    68   14   62       1
    69   18   63       1
    70   18   64       1
    71   20   65       1
    72   26   66       1
    73   32   67       1
    74   34   68       1
    75   34   69       1
    76   34   70       1
    77   36   71       1
    78   36   72       1
    79   36   73       1
    80   37   74       1
    81   41   75       1
    82   41   76       1
    83   42   77       1
    84   43   78       1
    85   44   79       1
    86   45   80       1
    87   46   81       1
    88   47   82       1
    89   48   83       1
@<TRIPOS>SUBSTRUCTURE
     1 FAD501      1 GROUP             4 A     FAD     0 **** FAD A 501
