@<TRIPOS>MOLECULE
3e4a_QIX_2_ligand
   73    74     1     0     0
SMALL
NO_CHARGES


@<TRIPOS>ATOM
     1 C10        -48.5090    86.7250    57.9440 C.2          1 QIX2001   0.0000
     2 C13        -50.9270    86.9280    57.2260 C.3          1 QIX2001   0.0000
     3 C20        -48.6850    83.5030    58.9230 C.ar         1 QIX2001   0.0000
     4 C21        -47.6350    82.7250    59.5360 C.ar         1 QIX2001   0.0000
     5 C22        -47.4910    82.8970    60.9640 C.ar         1 QIX2001   0.0000
     6 C24        -46.2170    82.2000    62.9920 C.ar         1 QIX2001   0.0000
     7 C26        -48.1710    83.9210    63.1300 C.ar         1 QIX2001   0.0000
     8 C28        -49.4820    84.6100    61.0940 C.ar         1 QIX2001   0.0000
     9 O54        -43.8480    88.5480    49.7480 O.2          1 QIX2001   0.0000
    10 C52        -43.5280    87.6160    50.4400 C.2          1 QIX2001   0.0000
    11 N53        -42.2980    86.8310    50.1080 N.am         1 QIX2001   0.0000
    12 C46        -44.5410    87.0890    51.5060 C.3          1 QIX2001   0.0000
    13 N45        -45.0050    88.1490    52.4440 N.am         1 QIX2001   0.0000
    14 C43        -44.2460    88.7550    53.5810 C.2          1 QIX2001   0.0000
    15 O44        -43.2290    88.2810    53.9880 O.2          1 QIX2001   0.0000
    16 C32        -45.0770    89.5160    54.6290 C.3          1 QIX2001   0.0000
    17 N31        -45.3280    88.4050    55.5900 N.am         1 QIX2001   0.0000
    18 C29        -46.4200    87.3950    55.3800 C.2          1 QIX2001   0.0000
    19 O30        -47.2150    87.4920    54.4670 O.2          1 QIX2001   0.0000
    20 C08        -46.5750    86.2530    56.4190 C.3          1 QIX2001   0.0000
    21 C07        -46.2470    84.8170    55.9170 C.3          1 QIX2001   0.0000
    22 C06        -44.9740    84.4010    56.6630 C.3          1 QIX2001   0.0000
    23 C05        -44.8430    82.8600    56.7980 C.3          1 QIX2001   0.0000
    24 N04        -44.1440    82.6910    58.0900 N.pl3        1 QIX2001   1.0000
    25 C02        -42.9730    81.8070    58.0250 C.cat        1 QIX2001   0.0000
    26 N03        -41.7190    82.2410    57.3500 N.pl3        1 QIX2001   0.0000
    27 N01        -42.9810    80.8040    58.7970 N.pl3        1 QIX2001   0.0000
    28 N09        -48.0020    86.1450    56.7220 N.am         1 QIX2001   0.0000
    29 O11        -47.7940    87.4540    58.5500 O.2          1 QIX2001   0.0000
    30 C12        -49.9880    86.5180    58.3970 C.3          1 QIX2001   0.0000
    31 C14        -51.7800    88.1470    57.5330 C.2          1 QIX2001   0.0000
    32 N16        -53.1700    87.9170    57.8450 N.am         1 QIX2001   0.0000
    33 O17        -53.9430    89.0450    58.1970 O.3          1 QIX2001  -1.0000
    34 O15        -51.3260    89.2340    57.5810 O.2          1 QIX2001   0.0000
    35 C18        -50.4970    85.0700    58.6110 C.3          1 QIX2001   0.0000
    36 C19        -49.5840    84.4070    59.6510 C.ar         1 QIX2001   0.0000
    37 C27        -48.3980    83.8200    61.7180 C.ar         1 QIX2001   0.0000
    38 C25        -47.0740    83.1280    63.7290 C.ar         1 QIX2001   0.0000
    39 C23        -46.4240    82.0850    61.5760 C.ar         1 QIX2001   0.0000
    40 H1         -51.5340    86.1597    57.0229 H            1 QIX2001   0.0000
    41 H2         -50.3642    87.1291    56.4243 H            1 QIX2001   0.0000
    42 H3         -48.8086    83.4205    57.9341 H            1 QIX2001   0.0000
    43 H4         -47.0481    82.1099    59.0095 H            1 QIX2001   0.0000
    44 H5         -45.5122    81.6648    63.4576 H            1 QIX2001   0.0000
    45 H6         -48.7414    84.5143    63.6979 H            1 QIX2001   0.0000
    46 H7         -50.0840    85.2211    61.6080 H            1 QIX2001   0.0000
    47 H8         -42.0295    86.0564    50.6806 H            1 QIX2001   0.0000
    48 H9         -41.7446    87.0810    49.3135 H            1 QIX2001   0.0000
    49 H10        -44.0979    86.3662    52.0363 H            1 QIX2001   0.0000
    50 H11        -45.3368    86.7137    51.0308 H            1 QIX2001   0.0000
    51 H12        -45.9313    88.4955    52.2963 H            1 QIX2001   0.0000
    52 H13        -45.9266    89.8756    54.2431 H            1 QIX2001   0.0000
    53 H14        -44.5588    90.2620    55.0471 H            1 QIX2001   0.0000
    54 H15        -44.7498    88.3292    56.4024 H            1 QIX2001   0.0000
    55 H16        -46.0559    86.4611    57.2480 H            1 QIX2001   0.0000
    56 H17        -46.0879    84.8201    54.9297 H            1 QIX2001   0.0000
    57 H18        -46.9976    84.1921    56.1318 H            1 QIX2001   0.0000
    58 H19        -44.9925    84.8030    57.5784 H            1 QIX2001   0.0000
    59 H20        -44.1808    84.7480    56.1626 H            1 QIX2001   0.0000
    60 H21        -44.3044    82.4789    56.0466 H            1 QIX2001   0.0000
    61 H22        -45.7428    82.4242    56.8176 H            1 QIX2001   0.0000
    62 H23        -44.4421    83.1388    58.9330 H            1 QIX2001   0.0000
    63 H24        -40.9313    81.6260    57.3152 H            1 QIX2001   0.0000
    64 H25        -41.6644    83.1475    56.9314 H            1 QIX2001   0.0000
    65 H26        -42.2104    80.1667    58.7967 H            1 QIX2001   0.0000
    66 H27        -48.6192    85.6753    56.0908 H            1 QIX2001   0.0000
    67 H28        -50.1819    87.0743    59.2050 H            1 QIX2001   0.0000
    68 H29        -53.5679    87.0001    57.8134 H            1 QIX2001   0.0000
    69 H30        -50.4569    84.5636    57.7497 H            1 QIX2001   0.0000
    70 H31        -51.4394    85.0856    58.9450 H            1 QIX2001   0.0000
    71 H32        -46.9067    83.2346    64.7091 H            1 QIX2001   0.0000
    72 H33        -45.8610    81.4722    61.0214 H            1 QIX2001   0.0000
    73 H34        -43.7579    80.6489    59.4072 H            1 QIX2001   0.0000
@<TRIPOS>BOND
     1    1   28      am
     2    1   29       2
     3    1   30       1
     4    2   30       1
     5    2   31       1
     6    3    4      ar
     7    3   36      ar
     8    4    5      ar
     9    5   37      ar
    10    5   39      ar
    11    6   38      ar
    12    6   39      ar
    13    7   37      ar
    14    7   38      ar
    15    8   36      ar
    16    8   37      ar
    17    9   10       2
    18   10   11      am
    19   10   12       1
    20   12   13       1
    21   13   14      am
    22   14   15       2
    23   14   16       1
    24   16   17       1
    25   17   18      am
    26   18   19       2
    27   18   20       1
    28   20   21       1
    29   20   28       1
    30   21   22       1
    31   22   23       1
    32   23   24       1
    33   24   25      ar
    34   25   26      ar
    35   25   27      ar
    36   30   35       1
    37   31   32      am
    38   31   34       2
    39   32   33       1
    40   35   36       1
    41    2   40       1
    42    2   41       1
    43    3   42       1
    44    4   43       1
    45    6   44       1
    46    7   45       1
    47    8   46       1
    48   11   47       1
    49   11   48       1
    50   12   49       1
    51   12   50       1
    52   13   51       1
    53   16   52       1
    54   16   53       1
    55   17   54       1
    56   20   55       1
    57   21   56       1
    58   21   57       1
    59   22   58       1
    60   22   59       1
    61   23   60       1
    62   23   61       1
    63   24   62       1
    64   26   63       1
    65   26   64       1
    66   27   65       1
    67   28   66       1
    68   30   67       1
    69   32   68       1
    70   27   73       1
    71   35   69       1
    72   35   70       1
    73   38   71       1
    74   39   72       1
@<TRIPOS>SUBSTRUCTURE
     1 QIX2001     1 GROUP             4 B     QIX     0 **** QIX B2001
