@<TRIPOS>MOLECULE
3mg3_ECH_1_ligand
   95    96     1     0     0
SMALL
NO_CHARGES


@<TRIPOS>ATOM
     1 C1         -21.9380     2.7640     1.1870 C.3          1 ECH351   0.0000
     2 C2         -22.2700     2.9300     2.6630 C.3          1 ECH351   0.0000
     3 C3         -21.0850     3.4910     3.4350 C.3          1 ECH351   0.0000
     4 C4         -20.6180     4.8360     2.9020 C.3          1 ECH351   0.0000
     5 C5         -20.6080     4.9530     1.3620 C.2          1 ECH351   0.0000
     6 C6         -21.2390     4.0020     0.5860 C.2          1 ECH351   0.0000
     7 C7         -21.3070     4.0270    -0.9410 C.2          1 ECH351   0.0000
     8 C8         -21.7630     5.0860    -1.5940 C.2          1 ECH351   0.0000
     9 C9         -21.6700     5.1290    -3.1160 C.2          1 ECH351   0.0000
    10 C10        -22.1900     6.2070    -3.7160 C.2          1 ECH351   0.0000
    11 C11        -22.0480     6.4860    -5.2140 C.2          1 ECH351   0.0000
    12 C12        -22.5830     7.6630    -5.6380 C.2          1 ECH351   0.0000
    13 C13        -22.2630     8.1350    -7.0600 C.2          1 ECH351   0.0000
    14 C14        -22.5820     9.3980    -7.3930 C.2          1 ECH351   0.0000
    15 C15        -22.1640    10.0310    -8.7180 C.2          1 ECH351   0.0000
    16 C16        -22.5380    11.3090    -8.8830 C.2          1 ECH351   0.0000
    17 C17        -22.0720    12.0650   -10.1240 C.2          1 ECH351   0.0000
    18 C18        -22.4340    13.3440   -10.3700 C.2          1 ECH351   0.0000
    19 C19        -21.7550    14.0200   -11.5470 C.2          1 ECH351   0.0000
    20 C20        -22.1700    15.2570   -11.9300 C.2          1 ECH351   0.0000
    21 C21        -21.3760    15.8860   -13.0690 C.2          1 ECH351   0.0000
    22 C22        -21.6830    17.0960   -13.5520 C.2          1 ECH351   0.0000
    23 C23        -20.6480    17.6960   -14.4890 C.2          1 ECH351   0.0000
    24 C24        -20.8770    18.9060   -14.9640 C.2          1 ECH351   0.0000
    25 C25        -19.8100    19.6270   -15.7970 C.2          1 ECH351   0.0000
    26 C26        -20.2400    20.3540   -16.8650 C.2          1 ECH351   0.0000
    27 C27        -19.3220    21.2920   -17.5900 C.2          1 ECH351   0.0000
    28 O27        -19.7570    21.9710   -18.4910 O.2          1 ECH351   0.0000
    29 C28        -17.9060    21.4430   -17.0720 C.3          1 ECH351   0.0000
    30 C29        -17.4410    20.2260   -16.2760 C.3          1 ECH351   0.0000
    31 C30        -18.4310    19.8720   -15.1480 C.3          1 ECH351   0.0000
    32 C31        -23.2240     2.4950     0.4520 C.3          1 ECH351   0.0000
    33 C32        -21.0280     1.5370     1.0000 C.3          1 ECH351   0.0000
    34 C33        -20.0060     6.2150     0.7230 C.3          1 ECH351   0.0000
    35 C34        -21.1400     3.9250    -3.9180 C.3          1 ECH351   0.0000
    36 C35        -21.7580     7.0960    -8.0680 C.3          1 ECH351   0.0000
    37 C36        -23.3740    14.2030    -9.4930 C.3          1 ECH351   0.0000
    38 C37        -22.8320    17.9710   -13.0240 C.3          1 ECH351   0.0000
    39 C38        -21.6010    20.0990   -17.5190 C.3          1 ECH351   0.0000
    40 C39        -18.5320    21.0460   -14.1760 C.3          1 ECH351   0.0000
    41 C40        -17.9050    18.6160   -14.4390 C.3          1 ECH351   0.0000
    42 H1         -22.5149     2.0386     3.0443 H            1 ECH351   0.0000
    43 H2         -23.0445     3.5559     2.7545 H            1 ECH351   0.0000
    44 H3         -20.3268     2.8419     3.3726 H            1 ECH351   0.0000
    45 H4         -21.3511     3.6017     4.3926 H            1 ECH351   0.0000
    46 H5         -19.6878     4.9958     3.2324 H            1 ECH351   0.0000
    47 H6         -21.2262     5.5425     3.2639 H            1 ECH351   0.0000
    48 H7         -21.0010     3.2275    -1.4578 H            1 ECH351   0.0000
    49 H8         -22.1654     5.8518    -1.0924 H            1 ECH351   0.0000
    50 H9         -22.6969     6.8631    -3.1569 H            1 ECH351   0.0000
    51 H10        -21.5943     5.8487    -5.8369 H            1 ECH351   0.0000
    52 H11        -23.1698     8.2058    -5.0371 H            1 ECH351   0.0000
    53 H12        -23.1145     9.9447    -6.7468 H            1 ECH351   0.0000
    54 H13        -21.6486     9.5293    -9.4128 H            1 ECH351   0.0000
    55 H14        -23.1145    11.7601    -8.2017 H            1 ECH351   0.0000
    56 H15        -21.4777    11.5976   -10.7785 H            1 ECH351   0.0000
    57 H16        -21.0120    13.5616   -12.0346 H            1 ECH351   0.0000
    58 H17        -22.9416    15.7212   -11.4951 H            1 ECH351   0.0000
    59 H18        -20.6077    15.3829   -13.4647 H            1 ECH351   0.0000
    60 H19        -19.8213    17.1911   -14.7374 H            1 ECH351   0.0000
    61 H20        -21.7512    19.3552   -14.7797 H            1 ECH351   0.0000
    62 H21        -17.8653    22.2479   -16.4800 H            1 ECH351   0.0000
    63 H22        -17.2917    21.5706   -17.8507 H            1 ECH351   0.0000
    64 H23        -16.5475    20.4241   -15.8730 H            1 ECH351   0.0000
    65 H24        -17.3617    19.4446   -16.8950 H            1 ECH351   0.0000
    66 H25        -23.0332     2.3817    -0.5231 H            1 ECH351   0.0000
    67 H26        -23.6435     1.6603     0.8088 H            1 ECH351   0.0000
    68 H27        -23.8495     3.2643     0.5821 H            1 ECH351   0.0000
    69 H28        -20.8101     1.4283     0.0301 H            1 ECH351   0.0000
    70 H29        -20.1831     1.6664     1.5190 H            1 ECH351   0.0000
    71 H30        -21.4995     0.7190     1.3294 H            1 ECH351   0.0000
    72 H31        -20.0701     6.1475    -0.2727 H            1 ECH351   0.0000
    73 H32        -20.5103     7.0199     1.0357 H            1 ECH351   0.0000
    74 H33        -19.0460     6.2985     0.9903 H            1 ECH351   0.0000
    75 H34        -21.1547     4.1421    -4.8940 H            1 ECH351   0.0000
    76 H35        -20.2022     3.7231    -3.6355 H            1 ECH351   0.0000
    77 H36        -21.7191     3.1283    -3.7450 H            1 ECH351   0.0000
    78 H37        -21.5905     7.5397    -8.9484 H            1 ECH351   0.0000
    79 H38        -20.9077     6.6911    -7.7317 H            1 ECH351   0.0000
    80 H39        -22.4464     6.3795    -8.1814 H            1 ECH351   0.0000
    81 H40        -23.4743    15.1102    -9.9015 H            1 ECH351   0.0000
    82 H41        -24.2700    13.7628    -9.4345 H            1 ECH351   0.0000
    83 H42        -22.9856    14.2915    -8.5758 H            1 ECH351   0.0000
    84 H43        -22.8640    18.8266   -13.5407 H            1 ECH351   0.0000
    85 H44        -23.6986    17.4839   -13.1319 H            1 ECH351   0.0000
    86 H45        -22.6806    18.1716   -12.0561 H            1 ECH351   0.0000
    87 H46        -21.7283    20.7330   -18.2818 H            1 ECH351   0.0000
    88 H47        -21.6373    19.1587   -17.8574 H            1 ECH351   0.0000
    89 H48        -22.3262    20.2388   -16.8448 H            1 ECH351   0.0000
    90 H49        -17.6398    21.2070   -13.7540 H            1 ECH351   0.0000
    91 H50        -18.8190    21.8656   -14.6719 H            1 ECH351   0.0000
    92 H51        -19.2033    20.8340   -13.4658 H            1 ECH351   0.0000
    93 H52        -17.0129    18.8120   -14.0319 H            1 ECH351   0.0000
    94 H53        -18.5465    18.3450   -13.7214 H            1 ECH351   0.0000
    95 H54        -17.8130    17.8729   -15.1019 H            1 ECH351   0.0000
@<TRIPOS>BOND
     1    1    2       1
     2    1    6       1
     3    1   32       1
     4    1   33       1
     5    2    3       1
     6    3    4       1
     7    4    5       1
     8    5    6       2
     9    5   34       1
    10    6    7       1
    11    7    8       2
    12    8    9       1
    13    9   10       2
    14    9   35       1
    15   10   11       1
    16   11   12       2
    17   12   13       1
    18   13   14       2
    19   13   36       1
    20   14   15       1
    21   15   16       2
    22   16   17       1
    23   17   18       2
    24   18   19       1
    25   18   37       1
    26   19   20       2
    27   20   21       1
    28   21   22       2
    29   22   23       1
    30   22   38       1
    31   23   24       2
    32   24   25       1
    33   25   26       2
    34   25   31       1
    35   26   27       1
    36   26   39       1
    37   27   28       2
    38   27   29       1
    39   29   30       1
    40   30   31       1
    41   31   40       1
    42   31   41       1
    43    2   42       1
    44    2   43       1
    45    3   44       1
    46    3   45       1
    47    4   46       1
    48    4   47       1
    49    7   48       1
    50    8   49       1
    51   10   50       1
    52   11   51       1
    53   12   52       1
    54   14   53       1
    55   15   54       1
    56   16   55       1
    57   17   56       1
    58   19   57       1
    59   20   58       1
    60   21   59       1
    61   23   60       1
    62   24   61       1
    63   29   62       1
    64   29   63       1
    65   30   64       1
    66   30   65       1
    67   32   66       1
    68   32   67       1
    69   32   68       1
    70   33   69       1
    71   33   70       1
    72   33   71       1
    73   34   72       1
    74   34   73       1
    75   34   74       1
    76   35   75       1
    77   35   76       1
    78   35   77       1
    79   36   78       1
    80   36   79       1
    81   36   80       1
    82   37   81       1
    83   37   82       1
    84   37   83       1
    85   38   84       1
    86   38   85       1
    87   38   86       1
    88   39   87       1
    89   39   88       1
    90   39   89       1
    91   40   90       1
    92   40   91       1
    93   40   92       1
    94   41   93       1
    95   41   94       1
    96   41   95       1
@<TRIPOS>SUBSTRUCTURE
     1 ECH351      1 GROUP             4 A     ECH     0 **** ECH A 351
