@<TRIPOS>MOLECULE
3hzi_ATP_1_ligand
   43    45     1     0     0
SMALL
NO_CHARGES


@<TRIPOS>ATOM
     1 PG          45.5940   137.8300    10.7690 P.3          1 ATP500   0.0000
     2 O1G         46.1060   136.9820     9.6520 O.co2        1 ATP500   0.0000
     3 O2G         44.1320   137.9390    10.8380 O.co2        1 ATP500  -1.0000
     4 O3G         46.1790   137.3440    12.0850 O.co2        1 ATP500  -1.0000
     5 PB          45.2360   140.7550    10.9690 P.3          1 ATP500   0.0000
     6 O1B         44.4460   141.3610     9.8710 O.co2        1 ATP500   0.0000
     7 O2B         45.4770   141.1530    12.3570 O.co2        1 ATP500  -1.0000
     8 O3B         46.0980   139.3880    10.5250 O.3          1 ATP500   0.0000
     9 PA          47.9050   142.2870    10.8070 P.3          1 ATP500   0.0000
    10 O1A         47.6860   143.3120    11.8400 O.co2        1 ATP500   0.0000
    11 O2A         48.8590   141.2000    11.1110 O.co2        1 ATP500  -1.0000
    12 O3A         46.4370   141.6650    10.3690 O.3          1 ATP500   0.0000
    13 O5'         48.3210   143.0470     9.4870 O.3          1 ATP500   0.0000
    14 C5'         48.5610   142.3650     8.2230 C.3          1 ATP500   0.0000
    15 C4'         49.7060   142.9760     7.4050 C.3          1 ATP500   0.0000
    16 O4'         49.6550   144.4260     7.4860 O.3          1 ATP500   0.0000
    17 C3'         51.1470   142.5570     7.8020 C.3          1 ATP500   0.0000
    18 O3'         51.6270   141.6290     6.8020 O.3          1 ATP500   0.0000
    19 C2'         51.9320   143.8490     7.8940 C.3          1 ATP500   0.0000
    20 O2'         52.9210   143.9810     6.8700 O.3          1 ATP500   0.0000
    21 C1'         50.9200   145.0210     7.8450 C.3          1 ATP500   0.0000
    22 N9          50.7530   145.7860     9.1440 N.pl3        1 ATP500   0.0000
    23 C8          49.8900   145.5750    10.2170 C.2          1 ATP500   0.0000
    24 N7          49.9970   146.4350    11.2090 N.2          1 ATP500   0.0000
    25 C5          51.0040   147.2750    10.7760 C.ar         1 ATP500   0.0000
    26 C6          51.6330   148.4470    11.3520 C.ar         1 ATP500   0.0000
    27 N6          51.2740   148.8970    12.5490 N.pl3        1 ATP500   0.0000
    28 N1          52.6330   149.1040    10.6650 N.ar         1 ATP500   0.0000
    29 C2          52.9970   148.6390     9.4380 C.ar         1 ATP500   0.0000
    30 N3          52.4880   147.5390     8.7630 N.ar         1 ATP500   0.0000
    31 C4          51.4670   146.9030     9.5010 C.ar         1 ATP500   0.0000
    32 H5'1        47.7244   142.4072     7.6769 H            1 ATP500   0.0000
    33 H5'2        48.7850   141.4098     8.4164 H            1 ATP500   0.0000
    34 H4'         49.5672   142.7196     6.4485 H            1 ATP500   0.0000
    35 H3'         51.1320   142.1090     8.6959 H            1 ATP500   0.0000
    36 H5          51.8464   140.7552     7.2361 H            1 ATP500   0.0000
    37 H2'         52.3944   143.8717     8.7804 H            1 ATP500   0.0000
    38 H7          53.4038   144.8494     6.9828 H            1 ATP500   0.0000
    39 H1'         51.1953   145.6584     7.1254 H            1 ATP500   0.0000
    40 H9          49.2332   144.8211    10.2331 H            1 ATP500   0.0000
    41 H10         51.7178   149.7070    12.9324 H            1 ATP500   0.0000
    42 H11         50.5600   148.4258    13.0668 H            1 ATP500   0.0000
    43 H12         53.7161   149.1508     8.9680 H            1 ATP500   0.0000
@<TRIPOS>BOND
     1    1    2      ar
     2    1    3      ar
     3    1    4      ar
     4    1    8       1
     5    5    6      ar
     6    5    7      ar
     7    5    8       1
     8    5   12       1
     9    9   10      ar
    10    9   11      ar
    11    9   12       1
    12    9   13       1
    13   13   14       1
    14   14   15       1
    15   15   16       1
    16   15   17       1
    17   16   21       1
    18   17   18       1
    19   17   19       1
    20   19   20       1
    21   19   21       1
    22   21   22       1
    23   22   23       1
    24   22   31       1
    25   23   24       2
    26   24   25       1
    27   25   26      ar
    28   25   31      ar
    29   26   27       1
    30   26   28      ar
    31   28   29      ar
    32   29   30      ar
    33   30   31      ar
    34   29   43       1
    35   27   42       1
    36   27   41       1
    37   23   40       1
    38   14   32       1
    39   14   33       1
    40   15   34       1
    41   17   35       1
    42   18   36       1
    43   19   37       1
    44   20   38       1
    45   21   39       1
@<TRIPOS>SUBSTRUCTURE
     1 ATP500      1 GROUP             4 A     ATP     0 **** ATP A 500
