@<TRIPOS>MOLECULE
3rv8_RVC_1_ligand
   29    30     1     0     0
SMALL
NO_CHARGES


@<TRIPOS>ATOM
     1 OB'         -3.3480    -7.0600    30.0620 O.co2        1 RVC451   0.0000
     2 OB          -0.7150    -5.6570    23.9090 O.co2        1 RVC451   0.0000
     3 OA'         -1.3260    -7.0740    30.6930 O.co2        1 RVC451  -1.0000
     4 OA           1.3010    -6.0330    23.9040 O.co2        1 RVC451  -1.0000
     5 O2          -1.8190    -5.0560    25.8290 O.3          1 RVC451   0.0000
     6 C8          -2.4070    -4.2320    30.5940 C.2          1 RVC451   0.0000
     7 C5           1.3470    -5.9870    27.9510 C.ar         1 RVC451   0.0000
     8 C4           0.2200    -5.5880    28.6170 C.ar         1 RVC451   0.0000
     9 C6           1.4210    -6.0890    26.5930 C.ar         1 RVC451   0.0000
    10 C10         -2.3900    -1.9160    31.3010 C.3          1 RVC451   0.0000
    11 C11         -3.7710    -2.1640    30.8610 C.3          1 RVC451   0.0000
    12 O3          -2.0270    -4.8730    28.4040 O.3          1 RVC451   0.0000
    13 C'          -2.2650    -6.5120    30.1720 C.2          1 RVC451   0.0000
    14 C            0.3070    -5.8130    24.5190 C.2          1 RVC451   0.0000
    15 C7          -2.0840    -5.1260    29.7110 C.2          1 RVC451   0.0000
    16 C2          -0.7810    -5.3570    26.5440 C.ar         1 RVC451   0.0000
    17 C3          -0.8730    -5.2670    27.8870 C.ar         1 RVC451   0.0000
    18 C1           0.3260    -5.7510    25.8760 C.ar         1 RVC451   0.0000
    19 C9          -2.6430    -2.8130    30.1900 C.3          1 RVC451   0.0000
    20 H1          -1.7736    -5.1155    24.8318 H            1 RVC451   0.0000
    21 H2          -2.4989    -4.4952    31.5544 H            1 RVC451   0.0000
    22 H3           2.1588    -6.2158    28.4882 H            1 RVC451   0.0000
    23 H4           0.2048    -5.5352    29.6155 H            1 RVC451   0.0000
    24 H5           2.2569    -6.4032    26.1430 H            1 RVC451   0.0000
    25 H6          -2.0711    -2.2814    32.1755 H            1 RVC451   0.0000
    26 H7          -1.9659    -1.0253    31.1374 H            1 RVC451   0.0000
    27 H8          -4.2861    -1.4448    30.3947 H            1 RVC451   0.0000
    28 H9          -4.3912    -2.7009    31.4329 H            1 RVC451   0.0000
    29 H10         -2.3955    -2.5233    29.2654 H            1 RVC451   0.0000
@<TRIPOS>BOND
     1    1   13      ar
     2    2   14      ar
     3    3   13      ar
     4    4   14      ar
     5    5   16       1
     6    6   15       2
     7    6   19       1
     8    7    8      ar
     9    7    9      ar
    10    8   17      ar
    11    9   18      ar
    12   10   11       1
    13   10   19       1
    14   11   19       1
    15   12   15       1
    16   12   17       1
    17   13   15       1
    18   14   18       1
    19   16   17      ar
    20   16   18      ar
    21   19   29       1
    22   11   28       1
    23    5   20       1
    24    6   21       1
    25    7   22       1
    26    8   23       1
    27    9   24       1
    28   10   25       1
    29   10   26       1
    30   11   27       1
@<TRIPOS>SUBSTRUCTURE
     1 RVC451      1 GROUP             4 A     RVC     0 **** RVC A 451
