@<TRIPOS>MOLECULE
1h7w_FAD_4_ligand
   84    89     1     0     0
SMALL
NO_CHARGES


@<TRIPOS>ATOM
     1 PA         100.0760    45.2230   103.4920 P.3          1 FAD1031   0.0000
     2 O1A        100.1750    46.1430   104.6600 O.co2        1 FAD1031   0.0000
     3 O2A         99.3700    45.3580   102.3430 O.co2        1 FAD1031  -1.0000
     4 O5B        101.1150    44.1210   103.5200 O.3          1 FAD1031   0.0000
     5 C5B        102.1120    43.8870   104.5810 C.3          1 FAD1031   0.0000
     6 C4B        102.2530    42.3240   104.7560 C.3          1 FAD1031   0.0000
     7 O4B        103.3590    42.0960   105.7460 O.3          1 FAD1031   0.0000
     8 C3B        101.0110    41.5680   105.3650 C.3          1 FAD1031   0.0000
     9 O3B        100.7010    40.4050   104.6640 O.3          1 FAD1031   0.0000
    10 C2B        101.4280    41.3530   106.8490 C.3          1 FAD1031   0.0000
    11 O2B        100.7680    40.2620   107.4370 O.3          1 FAD1031   0.0000
    12 C1B        102.8980    41.1210   106.7410 C.3          1 FAD1031   0.0000
    13 N9A        103.7060    41.4540   107.9140 N.pl3        1 FAD1031   0.0000
    14 C8A        103.4530    42.4230   108.8710 C.2          1 FAD1031   0.0000
    15 N7A        104.3920    42.4770   109.8140 N.2          1 FAD1031   0.0000
    16 C5A        105.2910    41.5060   109.4580 C.ar         1 FAD1031   0.0000
    17 C6A        106.5490    41.0590   110.0770 C.ar         1 FAD1031   0.0000
    18 N6A        107.0360    41.5830   111.1690 N.pl3        1 FAD1031   0.0000
    19 N1A        107.1990    40.0320   109.4160 N.ar         1 FAD1031   0.0000
    20 C2A        106.7140    39.4620   108.2630 C.ar         1 FAD1031   0.0000
    21 N3A        105.5640    39.8090   107.6220 N.ar         1 FAD1031   0.0000
    22 C4A        104.8910    40.8360   108.2600 C.ar         1 FAD1031   0.0000
    23 N1          94.0220    50.9640    98.7940 N.2          1 FAD1031   0.0000
    24 C2          93.4390    51.1350    97.6020 C.2          1 FAD1031   0.0000
    25 O2          94.0720    51.3540    96.6040 O.2          1 FAD1031   0.0000
    26 N3          92.0130    51.0990    97.4520 N.pl3        1 FAD1031   0.0000
    27 C4          91.1640    50.8380    98.5330 C.2          1 FAD1031   0.0000
    28 O4          89.9670    50.8180    98.3510 O.2          1 FAD1031   0.0000
    29 C4X         91.7880    50.5940    99.8400 C.2          1 FAD1031   0.0000
    30 N5          91.0150    50.3120   100.9430 N.2          1 FAD1031   0.0000
    31 C5X         91.6580    50.1090   102.1590 C.ar         1 FAD1031   0.0000
    32 C6          90.8470    49.7830   103.3000 C.ar         1 FAD1031   0.0000
    33 C7          91.4180    49.5430   104.5560 C.ar         1 FAD1031   0.0000
    34 C7M         90.5210    49.1950   105.7230 C.3          1 FAD1031   0.0000
    35 C8          92.8830    49.6260   104.7290 C.ar         1 FAD1031   0.0000
    36 C8M         93.5700    49.3750   106.0540 C.3          1 FAD1031   0.0000
    37 C9          93.6960    49.9510   103.6110 C.ar         1 FAD1031   0.0000
    38 C9A         93.1020    50.1950   102.3310 C.ar         1 FAD1031   0.0000
    39 N10         93.8760    50.5120   101.1240 N.pl3        1 FAD1031   0.0000
    40 C10         93.2680    50.6960    99.9200 C.2          1 FAD1031   0.0000
    41 C1'         95.3520    50.6220   101.2350 C.3          1 FAD1031   0.0000
    42 C2'         96.0630    49.3490   100.7290 C.3          1 FAD1031   0.0000
    43 O2'         95.4090    48.2350   101.3250 O.3          1 FAD1031   0.0000
    44 C3'         97.5180    49.4320   101.1670 C.3          1 FAD1031   0.0000
    45 O3'         98.0800    50.6370   100.6260 O.3          1 FAD1031   0.0000
    46 C4'         98.3190    48.2470   100.6270 C.3          1 FAD1031   0.0000
    47 O4'         97.7140    46.9880   100.9480 O.3          1 FAD1031   0.0000
    48 C5'         99.7000    48.3640   101.2030 C.3          1 FAD1031   0.0000
    49 O5'        100.5480    47.1860   100.6710 O.3          1 FAD1031   0.0000
    50 P          101.7360    46.6960   101.4520 P.3          1 FAD1031   0.0000
    51 O1P        102.3200    45.5510   100.6460 O.co2        1 FAD1031   0.0000
    52 O2P        102.6190    47.7310   101.7400 O.co2        1 FAD1031  -1.0000
    53 O3P        101.2760    46.1880   102.8100 O.3          1 FAD1031   0.0000
    54 H5B1       101.8038    44.3009   105.4376 H            1 FAD1031   0.0000
    55 H5B2       102.9917    44.2826   104.3173 H            1 FAD1031   0.0000
    56 H4B        102.4989    41.9105   103.8793 H            1 FAD1031   0.0000
    57 H3B        100.2195    42.1787   105.3394 H            1 FAD1031   0.0000
    58 H5         101.4834    39.7827   104.6881 H            1 FAD1031   0.0000
    59 H2B        101.2514    42.1837   107.3770 H            1 FAD1031   0.0000
    60 H7         100.9866    39.4278   106.9306 H            1 FAD1031   0.0000
    61 H1B        103.0869    40.1878   106.4352 H            1 FAD1031   0.0000
    62 H8A        102.6502    43.0190   108.8555 H            1 FAD1031   0.0000
    63 H6A1       107.8961    41.2408   111.5474 H            1 FAD1031   0.0000
    64 H6A2       106.5490    42.3266   111.6271 H            1 FAD1031   0.0000
    65 H2A        107.2553    38.7251   107.8580 H            1 FAD1031   0.0000
    66 H13         91.6146    51.2650    96.5499 H            1 FAD1031   0.0000
    67 H14         89.8542    49.7264   103.1948 H            1 FAD1031   0.0000
    68 H7M1        91.0782    49.0548   106.5415 H            1 FAD1031   0.0000
    69 H7M2        89.8765    49.9427   105.8826 H            1 FAD1031   0.0000
    70 H7M3        90.0153    48.3574   105.5165 H            1 FAD1031   0.0000
    71 H8M1        94.5578    49.4840   105.9432 H            1 FAD1031   0.0000
    72 H8M2        93.2363    50.0301   106.7319 H            1 FAD1031   0.0000
    73 H8M3        93.3698    48.4451   106.3624 H            1 FAD1031   0.0000
    74 H21         94.6885    50.0098   103.7181 H            1 FAD1031   0.0000
    75 H1'1        95.5942    50.7681   102.1942 H            1 FAD1031   0.0000
    76 H1'2        95.6600    51.4024   100.6908 H            1 FAD1031   0.0000
    77 H2'         96.0041    49.2925    99.7323 H            1 FAD1031   0.0000
    78 H25         96.0636    47.4883   101.4433 H            1 FAD1031   0.0000
    79 H3'         97.5714    49.4510   102.1654 H            1 FAD1031   0.0000
    80 H27         98.7972    50.9736   101.2362 H            1 FAD1031   0.0000
    81 H4'         98.3794    48.3285    99.6322 H            1 FAD1031   0.0000
    82 H29         98.3495    46.4425   101.4944 H            1 FAD1031   0.0000
    83 H5'1        99.6547    48.3246   102.2012 H            1 FAD1031   0.0000
    84 H5'2       100.1114    49.2310   100.9220 H            1 FAD1031   0.0000
@<TRIPOS>BOND
     1    1    2      ar
     2    1    3      ar
     3    1    4       1
     4    1   53       1
     5    4    5       1
     6    5    6       1
     7    6    7       1
     8    6    8       1
     9    7   12       1
    10    8    9       1
    11    8   10       1
    12   10   11       1
    13   10   12       1
    14   12   13       1
    15   13   14       1
    16   13   22       1
    17   14   15       2
    18   15   16       1
    19   16   17      ar
    20   16   22      ar
    21   17   18       1
    22   17   19      ar
    23   19   20      ar
    24   20   21      ar
    25   21   22      ar
    26   23   24       1
    27   23   40       2
    28   24   25       2
    29   24   26       1
    30   26   27       1
    31   27   28       2
    32   27   29       1
    33   29   30       2
    34   29   40       1
    35   30   31       1
    36   31   32      ar
    37   31   38      ar
    38   32   33      ar
    39   33   34       1
    40   33   35      ar
    41   35   36       1
    42   35   37      ar
    43   37   38      ar
    44   38   39       1
    45   39   40       1
    46   39   41       1
    47   41   42       1
    48   42   43       1
    49   42   44       1
    50   44   45       1
    51   44   46       1
    52   46   47       1
    53   46   48       1
    54   48   49       1
    55   49   50       1
    56   50   51      ar
    57   50   52      ar
    58   50   53       1
    59   48   84       1
    60    5   54       1
    61    5   55       1
    62    6   56       1
    63    8   57       1
    64    9   58       1
    65   10   59       1
    66   11   60       1
    67   12   61       1
    68   14   62       1
    69   18   63       1
    70   18   64       1
    71   20   65       1
    72   26   66       1
    73   32   67       1
    74   34   68       1
    75   34   69       1
    76   34   70       1
    77   36   71       1
    78   36   72       1
    79   36   73       1
    80   37   74       1
    81   41   75       1
    82   41   76       1
    83   42   77       1
    84   43   78       1
    85   44   79       1
    86   45   80       1
    87   46   81       1
    88   47   82       1
    89   48   83       1
@<TRIPOS>SUBSTRUCTURE
     1 FAD1031     1 GROUP             4 B     FAD     0 **** FAD B1031
