@<TRIPOS>MOLECULE
2v3h_I25_1_ligand
   66    67     1     0     0
SMALL
NO_CHARGES


@<TRIPOS>ATOM
     1 O17         16.5450   -11.0290    17.3850 O.co2        1 I251246   0.0000
     2 C15         16.0290   -12.1890    17.5590 C.2          1 I251246   0.0000
     3 O16         16.0240   -13.1210    16.6850 O.co2        1 I251246  -1.0000
     4 C13         15.4300   -12.4950    18.8920 C.3          1 I251246   0.0000
     5 N14         15.0360   -11.2260    19.5370 N.pl3        1 I251246   0.0000
     6 C1          14.1040   -11.2530    20.5690 C.ar         1 I251246   0.0000
     7 C6          13.7390   -10.0180    21.1330 C.ar         1 I251246   0.0000
     8 C4          12.8250   -10.0040    22.1670 C.ar         1 I251246   0.0000
     9 C3          12.2880   -11.2050    22.6230 C.ar         1 I251246   0.0000
    10 C18         11.3310   -11.1520    23.6960 C.cat        1 I251246   0.0000
    11 N20         10.5560   -12.2100    24.0080 N.pl3        1 I251246   1.0000
    12 N19         11.1600   -10.0300    24.4260 N.pl3        1 I251246   0.0000
    13 C5          12.6460   -12.4480    22.0520 C.ar         1 I251246   0.0000
    14 C2          13.5620   -12.4700    21.0100 C.ar         1 I251246   0.0000
    15 C11         16.4540   -13.2680    19.6640 C.ar         1 I251246   0.0000
    16 C8          16.1850   -14.5990    19.9740 C.ar         1 I251246   0.0000
    17 C9          17.6750   -12.6920    20.0230 C.ar         1 I251246   0.0000
    18 C10         18.6200   -13.4480    20.7290 C.ar         1 I251246   0.0000
    19 C21         19.9390   -12.8550    21.1220 C.3          1 I251246   0.0000
    20 C22         20.8470   -12.7800    19.8860 C.3          1 I251246   0.0000
    21 C12         18.3630   -14.7810    21.0540 C.ar         1 I251246   0.0000
    22 C7          17.1430   -15.3350    20.6780 C.ar         1 I251246   0.0000
    23 O23         16.8690   -16.6440    20.9900 O.3          1 I251246   0.0000
    24 C24         16.8590   -17.5080    19.8450 C.3          1 I251246   0.0000
    25 C25         16.3140   -18.9300    20.0980 C.3          1 I251246   0.0000
    26 C26         15.7160   -19.0870    21.5040 C.3          1 I251246   0.0000
    27 C27         15.1940   -19.1950    19.0880 C.3          1 I251246   0.0000
    28 C28         17.4000   -19.9950    19.8570 C.3          1 I251246   0.0000
    29 N29         18.6870   -19.7320    20.5420 N.4          1 I251246   1.0000
    30 C31         19.8060   -19.7180    19.5710 C.3          1 I251246   0.0000
    31 C30         18.9460   -20.7440    21.5840 C.3          1 I251246   0.0000
    32 H1          14.6176   -13.0638    18.7638 H            1 I251246   0.0000
    33 H2          15.4339   -10.3594    19.2358 H            1 I251246   0.0000
    34 H3          14.1344    -9.1654    20.7913 H            1 I251246   0.0000
    35 H4          12.5506    -9.1382    22.5854 H            1 I251246   0.0000
    36 H5           9.8992   -12.1444    24.7592 H            1 I251246   0.0000
    37 H6          10.6379   -13.0604    23.4882 H            1 I251246   0.0000
    38 H7          10.4895   -10.0134    25.1678 H            1 I251246   0.0000
    39 H8          12.2453   -13.2980    22.3938 H            1 I251246   0.0000
    40 H9          13.8299   -13.3336    20.5829 H            1 I251246   0.0000
    41 H10         15.3215   -15.0210    19.6978 H            1 I251246   0.0000
    42 H11         17.8739   -11.7434    19.7769 H            1 I251246   0.0000
    43 H12         20.3693   -13.4287    21.8189 H            1 I251246   0.0000
    44 H13         19.7965   -11.9356    21.4886 H            1 I251246   0.0000
    45 H14         21.7287   -12.3847    20.1436 H            1 I251246   0.0000
    46 H15         20.9883   -13.6998    19.5199 H            1 I251246   0.0000
    47 H16         20.4154   -12.2067    19.1896 H            1 I251246   0.0000
    48 H17         19.0412   -15.3263    21.5466 H            1 I251246   0.0000
    49 H18         17.7984   -17.5916    19.5125 H            1 I251246   0.0000
    50 H19         16.2927   -17.0807    19.1402 H            1 I251246   0.0000
    51 H20         15.3777   -20.0209    21.6200 H            1 I251246   0.0000
    52 H21         16.4206   -18.9003    22.1886 H            1 I251246   0.0000
    53 H22         14.9604   -18.4421    21.6188 H            1 I251246   0.0000
    54 H23         14.8246   -20.1129    19.2331 H            1 I251246   0.0000
    55 H24         14.4669   -18.5197    19.2117 H            1 I251246   0.0000
    56 H25         15.5590   -19.1255    18.1596 H            1 I251246   0.0000
    57 H26         17.5749   -20.0447    18.8737 H            1 I251246   0.0000
    58 H27         17.0502   -20.8750    20.1783 H            1 I251246   0.0000
    59 H28         20.6636   -19.5392    20.0533 H            1 I251246   0.0000
    60 H29         19.8603   -20.6048    19.1121 H            1 I251246   0.0000
    61 H30         19.6494   -19.0005    18.8923 H            1 I251246   0.0000
    62 H31         19.8181   -20.5461    22.0315 H            1 I251246   0.0000
    63 H32         18.2109   -20.7205    22.2615 H            1 I251246   0.0000
    64 H33         18.9845   -21.6513    21.1653 H            1 I251246   0.0000
    65 H34         11.7037    -9.2151    24.2252 H            1 I251246   0.0000
    66 H35         18.6355   -18.8339    20.9787 H            1 I251246   0.0000
@<TRIPOS>BOND
     1    1    2      ar
     2    2    3      ar
     3    2    4       1
     4    4    5       1
     5    4   15       1
     6    5    6       1
     7    6    7      ar
     8    6   14      ar
     9    7    8      ar
    10    8    9      ar
    11    9   10       1
    12    9   13      ar
    13   10   11      ar
    14   10   12      ar
    15   13   14      ar
    16   15   16      ar
    17   15   17      ar
    18   16   22      ar
    19   17   18      ar
    20   18   19       1
    21   18   21      ar
    22   19   20       1
    23   21   22      ar
    24   22   23       1
    25   23   24       1
    26   24   25       1
    27   25   26       1
    28   25   27       1
    29   25   28       1
    30   28   29       1
    31   29   30       1
    32   29   31       1
    33   31   64       1
    34    4   32       1
    35    5   33       1
    36    7   34       1
    37    8   35       1
    38   11   36       1
    39   11   37       1
    40   12   38       1
    41   13   39       1
    42   14   40       1
    43   16   41       1
    44   17   42       1
    45   19   43       1
    46   19   44       1
    47   20   45       1
    48   20   46       1
    49   20   47       1
    50   21   48       1
    51   24   49       1
    52   24   50       1
    53   26   51       1
    54   26   52       1
    55   26   53       1
    56   27   54       1
    57   27   55       1
    58   27   56       1
    59   28   57       1
    60   28   58       1
    61   30   59       1
    62   30   60       1
    63   30   61       1
    64   31   62       1
    65   31   63       1
    66   12   65       1
    67   29   66       1
@<TRIPOS>SUBSTRUCTURE
     1 I251246     1 GROUP             4 H     I25     0 **** I25 H1246
