@<TRIPOS>MOLECULE
3zqa_NDP_2_ligand
   73    77     1     0     0
SMALL
NO_CHARGES


@<TRIPOS>ATOM
     1 PA          52.3910   -92.0040   -21.5910 P.3          1 NDP1498   0.0000
     2 O1A         53.4130   -91.1120   -21.1030 O.co2        1 NDP1498   0.0000
     3 O2A         52.3160   -92.2810   -22.9870 O.co2        1 NDP1498  -1.0000
     4 O5B         51.0200   -91.4140   -21.1770 O.3          1 NDP1498   0.0000
     5 C5B         50.8120   -90.6340   -20.0130 C.3          1 NDP1498   0.0000
     6 C4B         49.4510   -89.9580   -20.0690 C.3          1 NDP1498   0.0000
     7 O4B         49.3970   -89.1150   -21.2000 O.3          1 NDP1498   0.0000
     8 C3B         48.2860   -90.8850   -20.2520 C.3          1 NDP1498   0.0000
     9 O3B         47.2200   -90.2790   -19.5640 O.3          1 NDP1498   0.0000
    10 C2B         47.9790   -90.8340   -21.7300 C.3          1 NDP1498   0.0000
    11 O2B         46.6370   -91.2130   -22.0210 O.3          1 NDP1498   0.0000
    12 C1B         48.2860   -89.3910   -22.0320 C.3          1 NDP1498   0.0000
    13 N9A         48.6460   -89.1130   -23.4380 N.pl3        1 NDP1498   0.0000
    14 C8A         49.2770   -90.2050   -24.1180 C.2          1 NDP1498   0.0000
    15 N7A         49.4760   -89.6340   -25.4340 N.2          1 NDP1498   0.0000
    16 C5A         48.9980   -88.3810   -25.4360 C.ar         1 NDP1498   0.0000
    17 C6A         48.9180   -87.3030   -26.4350 C.ar         1 NDP1498   0.0000
    18 N6A         49.3970   -87.4770   -27.6670 N.pl3        1 NDP1498   0.0000
    19 N1A         48.3660   -86.1520   -26.0980 N.ar         1 NDP1498   0.0000
    20 C2A         47.8910   -85.9240   -24.8790 C.ar         1 NDP1498   0.0000
    21 N3A         47.9110   -86.8300   -23.9120 N.ar         1 NDP1498   0.0000
    22 C4A         48.4490   -88.0320   -24.1250 C.ar         1 NDP1498   0.0000
    23 O3          52.4510   -93.4140   -20.8910 O.3          1 NDP1498   0.0000
    24 PN          52.4080   -94.8670   -21.6260 P.3          1 NDP1498   0.0000
    25 O1N         52.6370   -94.8290   -23.0730 O.co2        1 NDP1498   0.0000
    26 O2N         51.2130   -95.5920   -21.1250 O.co2        1 NDP1498  -1.0000
    27 O5D         53.7160   -95.5820   -21.1070 O.3          1 NDP1498   0.0000
    28 C5D         54.8030   -95.6540   -22.0120 C.3          1 NDP1498   0.0000
    29 C4D         56.1200   -95.2310   -21.3860 C.3          1 NDP1498   0.0000
    30 O4D         55.9630   -93.9670   -20.7880 O.3          1 NDP1498   0.0000
    31 C3D         56.5920   -96.1430   -20.2700 C.3          1 NDP1498   0.0000
    32 O3D         57.6600   -96.9840   -20.6820 O.3          1 NDP1498   0.0000
    33 C2D         57.1840   -95.2330   -19.2420 C.3          1 NDP1498   0.0000
    34 O2D         58.5960   -95.3220   -19.4000 O.3          1 NDP1498   0.0000
    35 C1D         56.6840   -93.8460   -19.5690 C.3          1 NDP1498   0.0000
    36 N1N         55.8040   -93.3830   -18.5050 N.ar         1 NDP1498   1.0000
    37 C2N         56.2690   -92.5530   -17.5850 C.ar         1 NDP1498   0.0000
    38 C3N         55.4390   -92.1240   -16.5810 C.ar         1 NDP1498   0.0000
    39 C7N         55.9890   -91.1780   -15.5580 C.2          1 NDP1498   0.0000
    40 O7N         57.1236   -90.7687   -15.5300 O.2          1 NDP1498   0.0000
    41 N7N         55.1381   -90.8306   -14.6414 N.am         1 NDP1498   0.0000
    42 C4N         54.0090   -92.5900   -16.5100 C.ar         1 NDP1498   0.0000
    43 C5N         53.6240   -93.4750   -17.5840 C.ar         1 NDP1498   0.0000
    44 C6N         54.5490   -93.8180   -18.5210 C.ar         1 NDP1498   0.0000
    45 P2B         46.3470   -92.7200   -22.3860 P.3          1 NDP1498   0.0000
    46 O1X         45.2400   -92.9960   -21.4910 O.co2        1 NDP1498   0.0000
    47 O2X         45.9650   -92.7940   -23.7940 O.co2        1 NDP1498  -1.0000
    48 O3X         47.6490   -93.3240   -22.0760 O.co2        1 NDP1498  -1.0000
    49 H5B1        51.5252   -89.9357   -19.9517 H            1 NDP1498   0.0000
    50 H5B2        50.8541   -91.2252   -19.2075 H            1 NDP1498   0.0000
    51 H4B         49.3158   -89.4133   -19.2414 H            1 NDP1498   0.0000
    52 H3B         48.4762   -91.8122   -19.9292 H            1 NDP1498   0.0000
    53 H5          47.4608   -90.1779   -18.5987 H            1 NDP1498   0.0000
    54 H2B         48.6130   -91.4259   -22.2277 H            1 NDP1498   0.0000
    55 H1B         47.5121   -88.8180   -21.7624 H            1 NDP1498   0.0000
    56 H8A         49.5152   -91.1143   -23.7767 H            1 NDP1498   0.0000
    57 H6A1        49.3363   -86.7365   -28.3363 H            1 NDP1498   0.0000
    58 H6A2        49.8169   -88.3481   -27.9218 H            1 NDP1498   0.0000
    59 H2A         47.4994   -85.0254   -24.6812 H            1 NDP1498   0.0000
    60 H5D1        54.6117   -95.0545   -22.7892 H            1 NDP1498   0.0000
    61 H5D2        54.8900   -96.5974   -22.3322 H            1 NDP1498   0.0000
    62 H4D         56.8241   -95.1793   -22.0942 H            1 NDP1498   0.0000
    63 H3D         55.8352   -96.6757   -19.8913 H            1 NDP1498   0.0000
    64 H16         57.5754   -97.1753   -21.6599 H            1 NDP1498   0.0000
    65 H2D         56.9083   -95.5056   -18.3202 H            1 NDP1498   0.0000
    66 H18         58.8090   -95.9574   -20.1423 H            1 NDP1498   0.0000
    67 H1D         57.4533   -93.2172   -19.6816 H            1 NDP1498   0.0000
    68 H2N         57.2184   -92.2410   -17.6216 H            1 NDP1498   0.0000
    69 H7N1        55.4264   -90.2354   -13.8913 H            1 NDP1498   0.0000
    70 H7N2        54.1943   -91.1582   -14.6853 H            1 NDP1498   0.0000
    71 H4N         53.3813   -92.3112   -15.7832 H            1 NDP1498   0.0000
    72 H5N         52.6910   -93.8307   -17.6384 H            1 NDP1498   0.0000
    73 H6N         54.2693   -94.4299   -19.2608 H            1 NDP1498   0.0000
@<TRIPOS>BOND
     1    1    2      ar
     2    1    3      ar
     3    1    4       1
     4    1   23       1
     5    4    5       1
     6    5    6       1
     7    6    7       1
     8    6    8       1
     9    7   12       1
    10    8    9       1
    11    8   10       1
    12   10   11       1
    13   10   12       1
    14   11   45       1
    15   12   13       1
    16   13   14       1
    17   13   22       1
    18   14   15       2
    19   15   16       1
    20   16   17      ar
    21   16   22      ar
    22   17   18       1
    23   17   19      ar
    24   19   20      ar
    25   20   21      ar
    26   21   22      ar
    27   23   24       1
    28   24   25      ar
    29   24   26      ar
    30   24   27       1
    31   27   28       1
    32   28   29       1
    33   29   30       1
    34   29   31       1
    35   30   35       1
    36   31   32       1
    37   31   33       1
    38   33   34       1
    39   33   35       1
    40   35   36       1
    41   36   37      ar
    42   36   44      ar
    43   37   38      ar
    44   38   39       1
    45   38   42      ar
    46   39   40       2
    47   39   41      am
    48   42   43      ar
    49   43   44      ar
    50   45   46      ar
    51   45   47      ar
    52   45   48      ar
    53   43   72       1
    54    5   49       1
    55    5   50       1
    56    6   51       1
    57    8   52       1
    58    9   53       1
    59   10   54       1
    60   12   55       1
    61   14   56       1
    62   18   57       1
    63   18   58       1
    64   20   59       1
    65   44   73       1
    66   28   60       1
    67   28   61       1
    68   29   62       1
    69   31   63       1
    70   32   64       1
    71   33   65       1
    72   34   66       1
    73   35   67       1
    74   37   68       1
    75   41   69       1
    76   41   70       1
    77   42   71       1
@<TRIPOS>SUBSTRUCTURE
     1 NDP1498     1 GROUP             4 B     NDP     0 **** NDP B1498
