@<TRIPOS>MOLECULE
1it7_GUN_1_ligand
   17    18     1     0     0
SMALL
NO_CHARGES


@<TRIPOS>ATOM
     1 N9          35.9780    39.0070    75.4360 N.pl3        1 GUN602   0.0000
     2 C8          34.9830    38.6370    74.5430 C.2          1 GUN602   0.0000
     3 N7          34.1200    37.7640    74.9970 N.2          1 GUN602   0.0000
     4 C5          34.5400    37.5100    76.2830 C.2          1 GUN602   0.0000
     5 C6          33.9740    36.6300    77.2680 C.2          1 GUN602   0.0000
     6 O6          32.9750    35.9080    77.1520 O.2          1 GUN602   0.0000
     7 N1          34.7030    36.6450    78.4810 N.2          1 GUN602   1.0000
     8 C2          35.8400    37.4160    78.7180 C.2          1 GUN602   0.0000
     9 N2          36.3790    37.2820    79.9310 N.pl3        1 GUN602   0.0000
    10 N3          36.3890    38.2580    77.8030 N.pl3        1 GUN602   0.0000
    11 C4          35.6860    38.2610    76.5910 C.2          1 GUN602   0.0000
    12 H1          36.7275    39.6531    75.2918 H            1 GUN602   0.0000
    13 H2          34.9289    39.0111    73.6172 H            1 GUN602   0.0000
    14 H3          34.3783    36.0589    79.2233 H            1 GUN602   0.0000
    15 H4          37.1968    37.8031    80.1751 H            1 GUN602   0.0000
    16 H5          35.9652    36.6604    80.5961 H            1 GUN602   0.0000
    17 H6          37.2029    38.8128    77.9754 H            1 GUN602   0.0000
@<TRIPOS>BOND
     1    1    2       1
     2    1   11       1
     3    2    3       2
     4    3    4       1
     5    4    5       1
     6    4   11       2
     7    5    6       2
     8    5    7       1
     9    7    8       2
    10    8    9       1
    11    8   10       1
    12   10   11       1
    13    1   12       1
    14    2   13       1
    15    7   14       1
    16    9   15       1
    17    9   16       1
    18   10   17       1
@<TRIPOS>SUBSTRUCTURE
     1 GUN602      1 GROUP             4 A     GUN     0 **** GUN A 602
