@<TRIPOS>MOLECULE
4jwj_SAH_1_ligand
   46    48     1     0     0
SMALL
NO_CHARGES


@<TRIPOS>ATOM
     1 N           25.5230    27.6660   -23.4080 N.4          1 SAH302   1.0000
     2 CA          24.5660    26.9450   -22.5190 C.3          1 SAH302   0.0000
     3 CB          23.1480    27.4460   -22.8120 C.3          1 SAH302   0.0000
     4 CG          22.4170    27.6620   -21.4790 C.3          1 SAH302   0.0000
     5 SD          20.6650    27.5380   -21.7030 S.3          1 SAH302   0.0000
     6 C           24.7110    25.4540   -22.7440 C.2          1 SAH302   0.0000
     7 O           23.8280    24.6360   -22.4110 O.co2        1 SAH302   0.0000
     8 OXT         25.7280    24.9870   -23.2710 O.co2        1 SAH302  -1.0000
     9 C5'         20.1430    26.8750   -20.1180 C.3          1 SAH302   0.0000
    10 C4'         20.0050    25.3500   -20.0450 C.3          1 SAH302   0.0000
    11 O4'         18.7230    24.9180   -20.5300 O.3          1 SAH302   0.0000
    12 C3'         21.0030    24.5690   -20.8970 C.3          1 SAH302   0.0000
    13 O3'         22.1880    24.3880   -20.1490 O.3          1 SAH302   0.0000
    14 C2'         20.2830    23.2530   -21.1980 C.3          1 SAH302   0.0000
    15 O2'         20.3600    22.3500   -20.0700 O.3          1 SAH302   0.0000
    16 C1'         18.8400    23.6930   -21.2530 C.3          1 SAH302   0.0000
    17 N9          18.3050    23.8450   -22.6360 N.pl3        1 SAH302   0.0000
    18 C8          17.9800    25.0010   -23.2630 C.2          1 SAH302   0.0000
    19 N7          17.5070    24.7500   -24.5080 N.2          1 SAH302   0.0000
    20 C5          17.5190    23.4180   -24.6650 C.ar         1 SAH302   0.0000
    21 C6          17.1130    22.4830   -25.7200 C.ar         1 SAH302   0.0000
    22 N6          16.6180    22.9760   -26.8780 N.pl3        1 SAH302   0.0000
    23 N1          17.2730    21.1640   -25.5040 N.ar         1 SAH302   0.0000
    24 C2          17.7810    20.6650   -24.3430 C.ar         1 SAH302   0.0000
    25 N3          18.1730    21.4690   -23.3300 N.ar         1 SAH302   0.0000
    26 C4          18.0460    22.8200   -23.4420 C.ar         1 SAH302   0.0000
    27 H1          25.8388    28.4983   -22.9524 H            1 SAH302   0.0000
    28 H2          26.3060    27.0755   -23.6035 H            1 SAH302   0.0000
    29 HA          24.7913    27.1515   -21.5668 H            1 SAH302   0.0000
    30 HB1         22.6575    26.7673   -23.3586 H            1 SAH302   0.0000
    31 HB2         23.1933    28.3093   -23.3147 H            1 SAH302   0.0000
    32 HG1         22.6398    28.5704   -21.1253 H            1 SAH302   0.0000
    33 HG2         22.7148    26.9672   -20.8244 H            1 SAH302   0.0000
    34 H5'1        19.2534    27.2744   -19.8964 H            1 SAH302   0.0000
    35 H5'2        20.8145    27.1554   -19.4321 H            1 SAH302   0.0000
    36 H4'         20.1018    25.0633   -19.0919 H            1 SAH302   0.0000
    37 H3'         21.1979    25.0617   -21.7451 H            1 SAH302   0.0000
    38 H12         22.9707    24.3446   -20.7698 H            1 SAH302   0.0000
    39 H2'         20.5905    22.8315   -22.0511 H            1 SAH302   0.0000
    40 H14         20.8243    21.5089   -20.3474 H            1 SAH302   0.0000
    41 H1'         18.2890    23.0034   -20.7830 H            1 SAH302   0.0000
    42 H16         18.0757    25.9125   -22.8630 H            1 SAH302   0.0000
    43 H17         16.3366    22.3522   -27.6072 H            1 SAH302   0.0000
    44 H18         16.5334    23.9643   -27.0050 H            1 SAH302   0.0000
    45 H19         17.8664    19.6743   -24.2370 H            1 SAH302   0.0000
    46 H20         25.0657    27.9075   -24.2639 H            1 SAH302   0.0000
@<TRIPOS>BOND
     1    1    2       1
     2    2    3       1
     3    2    6       1
     4    3    4       1
     5    4    5       1
     6    5    9       1
     7    6    7      ar
     8    6    8      ar
     9    9   10       1
    10   10   11       1
    11   10   12       1
    12   11   16       1
    13   12   13       1
    14   12   14       1
    15   14   15       1
    16   14   16       1
    17   16   17       1
    18   17   18       1
    19   17   26       1
    20   18   19       2
    21   19   20       1
    22   20   21      ar
    23   20   26      ar
    24   21   22       1
    25   21   23      ar
    26   23   24      ar
    27   24   25      ar
    28   25   26      ar
    29    1   27       1
    30    1   28       1
    31    2   29       1
    32    3   30       1
    33    3   31       1
    34    4   32       1
    35    4   33       1
    36    1   46       1
    37    9   34       1
    38    9   35       1
    39   10   36       1
    40   12   37       1
    41   13   38       1
    42   14   39       1
    43   15   40       1
    44   16   41       1
    45   18   42       1
    46   22   43       1
    47   22   44       1
    48   24   45       1
@<TRIPOS>SUBSTRUCTURE
     1 SAH302      1 GROUP             4 A     SAH     0 **** SAH A 302
