@<TRIPOS>MOLECULE
3r0i_C0K_1_ligand
   31    31     1     0     0
SMALL
NO_CHARGES


@<TRIPOS>ATOM
     1 C1          11.2810    -2.9760    38.7810 C.ar         1 C0K991   0.0000
     2 C2          10.5650    -4.1670    38.5060 C.ar         1 C0K991   0.0000
     3 C3           9.6400    -4.2090    37.4270 C.ar         1 C0K991   0.0000
     4 C4           9.4280    -3.0660    36.6380 C.ar         1 C0K991   0.0000
     5 C5          10.1380    -1.8820    36.9130 C.ar         1 C0K991   0.0000
     6 C6          11.0560    -1.8380    37.9640 C.ar         1 C0K991   0.0000
     7 C7           8.8070    -5.4030    37.0270 C.3          1 C0K991   0.0000
     8 P8           9.7680    -6.9520    36.6900 P.3          1 C0K991   0.0000
     9 O9          10.7780    -7.1900    37.8370 O.co2        1 C0K991   0.0000
    10 O10          8.7660    -8.0690    36.5230 O.co2        1 C0K991  -1.0000
    11 O11         10.4480    -6.6840    35.3840 O.co2        1 C0K991  -1.0000
    12 C12          7.4960    -5.4400    37.8680 C.3          1 C0K991   0.0000
    13 C13          6.5320    -4.3860    37.2530 C.3          1 C0K991   0.0000
    14 C14          5.8610    -4.5950    35.8550 C.2          1 C0K991   0.0000
    15 O15          5.7730    -5.7320    35.3370 O.2          1 C0K991   0.0000
    16 N16          5.3700    -3.4850    35.1930 N.am         1 C0K991   0.0000
    17 C17          5.4340    -2.0640    35.6130 C.3          1 C0K991   0.0000
    18 O18          4.6850    -3.6730    34.0000 O.3          1 C0K991  -1.0000
    19 F19          9.9480    -0.7440    36.1860 F            1 C0K991   0.0000
    20 F20         11.6860    -0.6530    38.1210 F            1 C0K991   0.0000
    21 H1          11.9336    -2.9380    39.5377 H            1 C0K991   0.0000
    22 H2          10.7103    -4.9790    39.0713 H            1 C0K991   0.0000
    23 H3           8.7737    -3.0935    35.8822 H            1 C0K991   0.0000
    24 H4           8.4778    -5.1466    36.1182 H            1 C0K991   0.0000
    25 H5           7.6928    -5.2106    38.8212 H            1 C0K991   0.0000
    26 H6           7.0842    -6.3501    37.8223 H            1 C0K991   0.0000
    27 H7           7.0517    -3.5340    37.1899 H            1 C0K991   0.0000
    28 H8           5.7851    -4.2732    37.9083 H            1 C0K991   0.0000
    29 H9           4.9903    -1.4922    34.9230 H            1 C0K991   0.0000
    30 H10          4.9646    -1.9539    36.4891 H            1 C0K991   0.0000
    31 H11          6.3902    -1.7879    35.7101 H            1 C0K991   0.0000
@<TRIPOS>BOND
     1    1    2      ar
     2    1    6      ar
     3    2    3      ar
     4    3    4      ar
     5    3    7       1
     6    4    5      ar
     7    5    6      ar
     8    5   19       1
     9    6   20       1
    10    7    8       1
    11    7   12       1
    12    8    9      ar
    13    8   10      ar
    14    8   11      ar
    15   12   13       1
    16   13   14       1
    17   14   15       2
    18   14   16      am
    19   16   17       1
    20   16   18       1
    21    1   21       1
    22    2   22       1
    23    4   23       1
    24    7   24       1
    25   17   30       1
    26   17   31       1
    27   12   25       1
    28   12   26       1
    29   13   27       1
    30   13   28       1
    31   17   29       1
@<TRIPOS>SUBSTRUCTURE
     1 C0K991      1 GROUP             4 A     C0K     0 **** C0K A 991
