@<TRIPOS>MOLECULE
1u22_THG_1_ligand
   49    51     1     0     0
SMALL
NO_CHARGES


@<TRIPOS>ATOM
     1 N3         -48.6640    45.6650   -70.2390 N.pl3        1 THG773   0.0000
     2 C2         -48.2490    45.4900   -71.5380 C.2          1 THG773   0.0000
     3 N1         -47.8300    44.2580   -71.9330 N.2          1 THG773   0.0000
     4 C8A        -47.8190    43.1870   -71.0600 C.ar         1 THG773   0.0000
     5 C4A        -48.2410    43.3160   -69.7070 C.ar         1 THG773   0.0000
     6 C4         -48.6700    44.6180   -69.3250 C.2          1 THG773   0.0000
     7 N8         -47.3730    41.9100   -71.5060 N.ar         1 THG773   0.0000
     8 C7         -47.3300    40.7220   -70.6700 C.ar         1 THG773   0.0000
     9 C6         -47.7590    40.8490   -69.3230 C.ar         1 THG773   0.0000
    10 N5         -48.2490    42.2260   -68.7800 N.ar         1 THG773   0.0000
    11 C9         -47.6680    39.5310   -68.6260 C.3          1 THG773   0.0000
    12 N10        -48.6180    38.4720   -69.1960 N.pl3        1 THG773   0.0000
    13 C4'        -49.9990    38.5320   -69.3250 C.ar         1 THG773   0.0000
    14 C3'        -50.8080    39.6540   -68.9250 C.ar         1 THG773   0.0000
    15 C2'        -52.2170    39.6410   -69.1020 C.ar         1 THG773   0.0000
    16 C1'        -52.8560    38.5110   -69.6780 C.ar         1 THG773   0.0000
    17 C6'        -52.0710    37.3910   -70.0730 C.ar         1 THG773   0.0000
    18 C5'        -50.6500    37.4040   -69.8950 C.ar         1 THG773   0.0000
    19 C11        -54.3940    38.5160   -69.8690 C.2          1 THG773   0.0000
    20 N          -54.8040    39.0000   -71.0680 N.am         1 THG773   0.0000
    21 CA         -56.2090    39.1580   -71.5120 C.3          1 THG773   0.0000
    22 C          -56.5690    38.1510   -72.6270 C.2          1 THG773   0.0000
    23 OX2        -57.3730    37.2440   -72.3040 O.co2        1 THG773   0.0000
    24 OX1        -56.0560    38.3110   -73.7610 O.co2        1 THG773  -1.0000
    25 CB         -56.5120    40.5860   -71.9760 C.3          1 THG773   0.0000
    26 CG         -56.1480    41.6040   -70.8900 C.3          1 THG773   0.0000
    27 CD         -56.4300    43.0300   -71.3210 C.2          1 THG773   0.0000
    28 OE1        -57.6260    43.4000   -71.2850 O.co2        1 THG773   0.0000
    29 OE2        -55.4420    43.7370   -71.6730 O.co2        1 THG773  -1.0000
    30 O11        -55.1530    38.1250   -68.9600 O.2          1 THG773   0.0000
    31 O4         -49.0930    44.8420   -68.0370 O.2          1 THG773   0.0000
    32 N2         -48.2500    46.5120   -72.4160 N.pl3        1 THG773   0.0000
    33 H1         -48.9698    46.5702   -69.9438 H            1 THG773   0.0000
    34 H2         -47.0096    39.8462   -71.0310 H            1 THG773   0.0000
    35 H3         -47.8888    39.6676   -67.6603 H            1 THG773   0.0000
    36 H4         -46.7305    39.1930   -68.7090 H            1 THG773   0.0000
    37 H5         -48.1873    37.6284   -69.5166 H            1 THG773   0.0000
    38 H3'        -50.3708    40.4550   -68.5161 H            1 THG773   0.0000
    39 H2'        -52.7615    40.4309   -68.8199 H            1 THG773   0.0000
    40 H6'        -52.5142    36.5908   -70.4770 H            1 THG773   0.0000
    41 H5'        -50.1095    36.6105   -70.1749 H            1 THG773   0.0000
    42 H10        -54.0913    39.2761   -71.7128 H            1 THG773   0.0000
    43 HA         -56.7977    38.9637   -70.7274 H            1 THG773   0.0000
    44 HB1        -57.4874    40.6628   -72.1828 H            1 THG773   0.0000
    45 HB2        -55.9801    40.7821   -72.7998 H            1 THG773   0.0000
    46 HG1        -55.1738    41.5176   -70.6817 H            1 THG773   0.0000
    47 HG2        -56.6833    41.4042   -70.0693 H            1 THG773   0.0000
    48 H16        -47.9442    46.3635   -73.3564 H            1 THG773   0.0000
    49 H17        -48.5566    47.4190   -72.1272 H            1 THG773   0.0000
@<TRIPOS>BOND
     1    1    2       1
     2    1    6       1
     3    2    3       2
     4    2   32       1
     5    3    4       1
     6    4    5      ar
     7    4    7      ar
     8    5    6       1
     9    5   10      ar
    10    6   31       2
    11    7    8      ar
    12    8    9      ar
    13    9   10      ar
    14    9   11       1
    15   11   12       1
    16   12   13       1
    17   13   14      ar
    18   13   18      ar
    19   14   15      ar
    20   15   16      ar
    21   16   17      ar
    22   16   19       1
    23   17   18      ar
    24   19   20      am
    25   19   30       2
    26   20   21       1
    27   21   22       1
    28   21   25       1
    29   22   23      ar
    30   22   24      ar
    31   25   26       1
    32   26   27       1
    33   27   28      ar
    34   27   29      ar
    35    1   33       1
    36    8   34       1
    37   11   35       1
    38   11   36       1
    39   12   37       1
    40   14   38       1
    41   15   39       1
    42   17   40       1
    43   18   41       1
    44   20   42       1
    45   21   43       1
    46   32   49       1
    47   25   44       1
    48   25   45       1
    49   26   46       1
    50   26   47       1
    51   32   48       1
@<TRIPOS>SUBSTRUCTURE
     1 THG773      1 GROUP             4 A     THG     0 **** THG A 773
