@<TRIPOS>MOLECULE
5ftc_ADP_1_ligand
   39    41     1     0     0
SMALL
NO_CHARGES


@<TRIPOS>ATOM
     1 PB         -25.4210     1.0540    21.3000 P.3          1 ADP1432   0.0000
     2 O1B        -25.3420     1.5290    19.8610 O.co2        1 ADP1432   0.0000
     3 O2B        -26.6320     0.2460    21.6300 O.co2        1 ADP1432  -1.0000
     4 O3B        -24.1590     0.3740    21.7890 O.co2        1 ADP1432  -1.0000
     5 PA         -26.0290     2.7280    23.6390 P.3          1 ADP1432   0.0000
     6 O1A        -25.8180     1.4680    24.4340 O.co2        1 ADP1432   0.0000
     7 O2A        -27.3930     3.3740    23.5770 O.co2        1 ADP1432  -1.0000
     8 O3A        -25.5450     2.4640    22.1040 O.3          1 ADP1432   0.0000
     9 O5'        -24.9360     3.8080    24.1410 O.3          1 ADP1432   0.0000
    10 C5'        -24.2850     3.6110    25.3970 C.3          1 ADP1432   0.0000
    11 C4'        -23.4470     4.8240    25.7960 C.3          1 ADP1432   0.0000
    12 O4'        -23.6700     5.9200    24.8940 O.3          1 ADP1432   0.0000
    13 C3'        -23.8250     5.2990    27.1900 C.3          1 ADP1432   0.0000
    14 O3'        -22.6670     5.8410    27.8470 O.3          1 ADP1432   0.0000
    15 C2'        -24.8680     6.3540    26.8980 C.3          1 ADP1432   0.0000
    16 O2'        -24.9490     7.3300    27.9380 O.3          1 ADP1432   0.0000
    17 C1'        -24.3690     6.9610    25.5890 C.3          1 ADP1432   0.0000
    18 N9         -25.4780     7.5000    24.7670 N.pl3        1 ADP1432   0.0000
    19 C8         -26.2670     6.7740    23.9490 C.2          1 ADP1432   0.0000
    20 N7         -27.1840     7.5570    23.3310 N.2          1 ADP1432   0.0000
    21 C5         -26.9780     8.8120    23.7560 C.ar         1 ADP1432   0.0000
    22 C6         -27.5990    10.1220    23.4890 C.ar         1 ADP1432   0.0000
    23 N6         -28.6310    10.2050    22.6310 N.pl3        1 ADP1432   0.0000
    24 N1         -27.1110    11.2050    24.1400 N.ar         1 ADP1432   0.0000
    25 C2         -26.0690    11.1090    24.9990 C.ar         1 ADP1432   0.0000
    26 N3         -25.4600     9.9430    25.2830 N.ar         1 ADP1432   0.0000
    27 C4         -25.8540     8.7800    24.7050 C.ar         1 ADP1432   0.0000
    28 H5'1       -23.6873     2.8121    25.3303 H            1 ADP1432   0.0000
    29 H5'2       -24.9783     3.4509    26.0997 H            1 ADP1432   0.0000
    30 H4'        -22.4783     4.5760    25.7823 H            1 ADP1432   0.0000
    31 H3'        -24.2179     4.5509    27.7247 H            1 ADP1432   0.0000
    32 H5         -22.9188     6.1524    28.7633 H            1 ADP1432   0.0000
    33 H2'        -25.7607     5.9252    26.7593 H            1 ADP1432   0.0000
    34 H7         -25.6479     8.0067    27.7064 H            1 ADP1432   0.0000
    35 H1'        -23.7286     7.7005    25.7965 H            1 ADP1432   0.0000
    36 H9         -26.1858     5.7862    23.8159 H            1 ADP1432   0.0000
    37 H10        -29.0569    11.0905    22.4453 H            1 ADP1432   0.0000
    38 H11        -28.9726     9.3812    22.1786 H            1 ADP1432   0.0000
    39 H12        -25.7370    11.9417    25.4422 H            1 ADP1432   0.0000
@<TRIPOS>BOND
     1    1    2      ar
     2    1    3      ar
     3    1    4      ar
     4    1    8       1
     5    5    6      ar
     6    5    7      ar
     7    5    8       1
     8    5    9       1
     9    9   10       1
    10   10   11       1
    11   11   12       1
    12   11   13       1
    13   12   17       1
    14   13   14       1
    15   13   15       1
    16   15   16       1
    17   15   17       1
    18   17   18       1
    19   18   19       1
    20   18   27       1
    21   19   20       2
    22   20   21       1
    23   21   22      ar
    24   21   27      ar
    25   22   23       1
    26   22   24      ar
    27   24   25      ar
    28   25   26      ar
    29   26   27      ar
    30   25   39       1
    31   23   38       1
    32   23   37       1
    33   10   28       1
    34   10   29       1
    35   11   30       1
    36   13   31       1
    37   14   32       1
    38   15   33       1
    39   16   34       1
    40   17   35       1
    41   19   36       1
@<TRIPOS>SUBSTRUCTURE
     1 ADP1432     1 GROUP             4 A     ADP     0 **** ADP A1432
