@<TRIPOS>MOLECULE
1h5s_TMP_4_ligand
   34    35     1     0     0
SMALL
NO_CHARGES


@<TRIPOS>ATOM
     1 P           26.8260   -22.8930    60.7520 P.3          1 TMP1293   0.0000
     2 O1P         26.6560   -21.6270    61.5630 O.co2        1 TMP1293   0.0000
     3 O2P         27.6490   -22.9630    59.4710 O.co2        1 TMP1293  -1.0000
     4 O3P         26.2720   -24.1720    61.3510 O.co2        1 TMP1293  -1.0000
     5 O5'         28.1730   -22.8900    61.4950 O.3          1 TMP1293   0.0000
     6 C5'         28.4340   -21.9100    62.5200 C.3          1 TMP1293   0.0000
     7 C4'         29.9170   -21.6900    62.8860 C.3          1 TMP1293   0.0000
     8 O4'         30.6440   -22.8340    63.3670 O.3          1 TMP1293   0.0000
     9 C3'         30.7740   -21.1960    61.7360 C.3          1 TMP1293   0.0000
    10 O3'         31.6720   -20.2580    62.2990 O.3          1 TMP1293   0.0000
    11 C2'         31.6510   -22.3630    61.3370 C.3          1 TMP1293   0.0000
    12 C1'         31.7130   -23.2760    62.5400 C.3          1 TMP1293   0.0000
    13 N1          31.4830   -24.6620    62.1390 N.pl3        1 TMP1293   0.0000
    14 C2          32.4650   -25.5500    62.3760 C.2          1 TMP1293   0.0000
    15 O2          33.5050   -25.0510    63.0130 O.2          1 TMP1293   0.0000
    16 N3          32.3000   -26.8780    62.2100 N.pl3        1 TMP1293   0.0000
    17 C4          31.1690   -27.3330    61.6520 C.2          1 TMP1293   0.0000
    18 O4          31.0400   -28.6250    61.3170 O.2          1 TMP1293   0.0000
    19 C5          30.1480   -26.4230    61.3290 C.2          1 TMP1293   0.0000
    20 C5M         28.8450   -26.9050    60.6890 C.3          1 TMP1293   0.0000
    21 C6          30.3120   -25.0600    61.6200 C.2          1 TMP1293   0.0000
    22 H5'1        27.9543   -22.1990    63.3485 H            1 TMP1293   0.0000
    23 H5'2        28.0631   -21.0353    62.2081 H            1 TMP1293   0.0000
    24 H4'         29.9479   -20.9932    63.6026 H            1 TMP1293   0.0000
    25 H3'         30.2401   -20.8250    60.9762 H            1 TMP1293   0.0000
    26 H5          32.2676   -19.8951    61.5824 H            1 TMP1293   0.0000
    27 H2'1        32.5674   -22.0419    61.0981 H            1 TMP1293   0.0000
    28 H2'2        31.2526   -22.8448    60.5565 H            1 TMP1293   0.0000
    29 H1'         32.5897   -23.1832    63.0121 H            1 TMP1293   0.0000
    30 H9          33.0132   -27.5163    62.4998 H            1 TMP1293   0.0000
    31 H5M1        28.2416   -26.1232    60.5319 H            1 TMP1293   0.0000
    32 H5M2        29.0469   -27.3507    59.8169 H            1 TMP1293   0.0000
    33 H5M3        28.3946   -27.5562    61.2998 H            1 TMP1293   0.0000
    34 H13         29.5772   -24.4046    61.4455 H            1 TMP1293   0.0000
@<TRIPOS>BOND
     1    1    2      ar
     2    1    3      ar
     3    1    4      ar
     4    1    5       1
     5    5    6       1
     6    6    7       1
     7    7    8       1
     8    7    9       1
     9    8   12       1
    10    9   10       1
    11    9   11       1
    12   11   12       1
    13   12   13       1
    14   13   14       1
    15   13   21       1
    16   14   15       2
    17   14   16       1
    18   16   17       1
    19   17   18       2
    20   17   19       1
    21   19   20       1
    22   19   21       2
    23   21   34       1
    24   20   33       1
    25    6   22       1
    26    6   23       1
    27    7   24       1
    28    9   25       1
    29   10   26       1
    30   11   27       1
    31   11   28       1
    32   12   29       1
    33   16   30       1
    34   20   31       1
    35   20   32       1
@<TRIPOS>SUBSTRUCTURE
     1 TMP1293     1 GROUP             4 B     TMP     0 **** TMP B1293
