@<TRIPOS>MOLECULE
1pz0_NAP_1_ligand
   73    77     1     0     0
SMALL
NO_CHARGES


@<TRIPOS>ATOM
     1 PA           2.7090     4.5760    64.2800 P.3          1 NAP313   0.0000
     2 O1A          1.4410     4.5190    63.4210 O.co2        1 NAP313   0.0000
     3 O2A          3.9570     4.1850    63.4970 O.co2        1 NAP313  -1.0000
     4 O5B          2.4650     3.6070    65.6350 O.3          1 NAP313   0.0000
     5 C5B          2.8770     2.2630    65.3920 C.3          1 NAP313   0.0000
     6 C4B          1.5580     1.5460    64.9100 C.3          1 NAP313   0.0000
     7 O4B          2.0070     0.1640    64.6140 O.3          1 NAP313   0.0000
     8 C3B          0.4420     1.3390    65.9700 C.3          1 NAP313   0.0000
     9 O3B         -0.7830     1.3910    65.2230 O.3          1 NAP313   0.0000
    10 C2B          0.6780    -0.0390    66.5810 C.3          1 NAP313   0.0000
    11 O2B         -0.5270    -0.7640    66.8950 O.3          1 NAP313   0.0000
    12 C1B          1.4920    -0.8080    65.4980 C.3          1 NAP313   0.0000
    13 N9A          2.5760    -1.5610    66.0980 N.pl3        1 NAP313   0.0000
    14 C8A          3.6590    -1.1580    66.8520 C.2          1 NAP313   0.0000
    15 N7A          4.4900    -2.1290    67.1690 N.2          1 NAP313   0.0000
    16 C5A          3.9030    -3.2410    66.5820 C.ar         1 NAP313   0.0000
    17 C6A          4.3240    -4.5830    66.5760 C.ar         1 NAP313   0.0000
    18 N6A          5.4330    -5.0910    67.1550 N.pl3        1 NAP313   0.0000
    19 N1A          3.5090    -5.5030    65.8900 N.ar         1 NAP313   0.0000
    20 C2A          2.3290    -5.0890    65.2480 C.ar         1 NAP313   0.0000
    21 N3A          1.8950    -3.7690    65.2420 N.ar         1 NAP313   0.0000
    22 C4A          2.7140    -2.8870    65.9240 C.ar         1 NAP313   0.0000
    23 O3           2.8130     5.9170    64.6990 O.3          1 NAP313   0.0000
    24 PN           3.5270     6.8070    65.9430 P.3          1 NAP313   0.0000
    25 O1N          3.4710     6.1400    67.3340 O.co2        1 NAP313   0.0000
    26 O2N          5.0030     7.1210    65.5480 O.co2        1 NAP313  -1.0000
    27 O5D          2.7900     8.0070    65.9230 O.3          1 NAP313   0.0000
    28 C5D          1.4420     7.8090    66.4490 C.3          1 NAP313   0.0000
    29 C4D          0.6650     9.0310    66.0600 C.3          1 NAP313   0.0000
    30 O4D          1.2150    10.1800    66.7520 O.3          1 NAP313   0.0000
    31 C3D          0.7120     9.3600    64.5430 C.3          1 NAP313   0.0000
    32 O3D         -0.5900     9.5940    63.9950 O.3          1 NAP313   0.0000
    33 C2D          1.6180    10.5720    64.4330 C.3          1 NAP313   0.0000
    34 O2D          1.2180    11.4800    63.4220 O.3          1 NAP313   0.0000
    35 C1D          1.5930    11.2210    65.7810 C.3          1 NAP313   0.0000
    36 N1N          2.9310    11.7520    66.2080 N.ar         1 NAP313   1.0000
    37 C2N          3.3560    13.0540    65.8620 C.ar         1 NAP313   0.0000
    38 C3N          4.6140    13.4750    66.2690 C.ar         1 NAP313   0.0000
    39 C7N          5.0620    14.8800    65.8800 C.2          1 NAP313   0.0000
    40 O7N          4.2766    15.5483    65.2376 O.2          1 NAP313   0.0000
    41 N7N          6.2425    15.3149    66.2190 N.am         1 NAP313   0.0000
    42 C4N          5.5100    12.6020    67.0440 C.ar         1 NAP313   0.0000
    43 C5N          5.0490    11.3020    67.3760 C.ar         1 NAP313   0.0000
    44 C6N          3.7610    10.8500    66.9660 C.ar         1 NAP313   0.0000
    45 P2B         -1.1910    -0.8700    68.3980 P.3          1 NAP313   0.0000
    46 O1X         -1.2670     0.5640    68.9590 O.co2        1 NAP313   0.0000
    47 O2X         -2.5320    -1.4440    68.0900 O.co2        1 NAP313  -1.0000
    48 O3X         -0.2610    -1.7450    69.2220 O.co2        1 NAP313  -1.0000
    49 H5B1         3.2266     1.8409    66.2284 H            1 NAP313   0.0000
    50 H5B2         3.5806     2.2290    64.6822 H            1 NAP313   0.0000
    51 H4B          1.1929     1.9856    64.0893 H            1 NAP313   0.0000
    52 H3B          0.4700     2.0539    66.6687 H            1 NAP313   0.0000
    53 H5          -1.5572     1.2642    65.8431 H            1 NAP313   0.0000
    54 H2B          1.2328     0.0556    67.4076 H            1 NAP313   0.0000
    55 H1B          0.8866    -1.4287    64.9998 H            1 NAP313   0.0000
    56 H8A          3.8008    -0.2091    67.1338 H            1 NAP313   0.0000
    57 H6A1         5.6310    -6.0686    67.0841 H            1 NAP313   0.0000
    58 H6A2         6.0564    -4.4896    67.6547 H            1 NAP313   0.0000
    59 H2A          1.7771    -5.7753    64.7743 H            1 NAP313   0.0000
    60 H5D1         1.4674     7.7152    67.4443 H            1 NAP313   0.0000
    61 H5D2         1.0286     6.9917    66.0476 H            1 NAP313   0.0000
    62 H4D         -0.2884     8.9112    66.3368 H            1 NAP313   0.0000
    63 H3D          1.1348     8.5943    64.0583 H            1 NAP313   0.0000
    64 H16         -1.2658     9.0576    64.5006 H            1 NAP313   0.0000
    65 H2D          2.5493    10.2631    64.2401 H            1 NAP313   0.0000
    66 H18          1.4851    12.4078    63.6825 H            1 NAP313   0.0000
    67 H1D          0.9162    11.9571    65.7913 H            1 NAP313   0.0000
    68 H2N          2.7617    13.6606    65.3339 H            1 NAP313   0.0000
    69 H7N1         6.5382    16.2283    65.9393 H            1 NAP313   0.0000
    70 H7N2         6.8528    14.7353    66.7590 H            1 NAP313   0.0000
    71 H4N          6.4161    12.9155    67.3280 H            1 NAP313   0.0000
    72 H5N          5.6378    10.6924    67.9067 H            1 NAP313   0.0000
    73 H6N          3.4416     9.9312    67.1982 H            1 NAP313   0.0000
@<TRIPOS>BOND
     1    1    2      ar
     2    1    3      ar
     3    1    4       1
     4    1   23       1
     5    4    5       1
     6    5    6       1
     7    6    7       1
     8    6    8       1
     9    7   12       1
    10    8    9       1
    11    8   10       1
    12   10   11       1
    13   10   12       1
    14   11   45       1
    15   12   13       1
    16   13   14       1
    17   13   22       1
    18   14   15       2
    19   15   16       1
    20   16   17      ar
    21   16   22      ar
    22   17   18       1
    23   17   19      ar
    24   19   20      ar
    25   20   21      ar
    26   21   22      ar
    27   23   24       1
    28   24   25      ar
    29   24   26      ar
    30   24   27       1
    31   27   28       1
    32   28   29       1
    33   29   30       1
    34   29   31       1
    35   30   35       1
    36   31   32       1
    37   31   33       1
    38   33   34       1
    39   33   35       1
    40   35   36       1
    41   36   37      ar
    42   36   44      ar
    43   37   38      ar
    44   38   39       1
    45   38   42      ar
    46   39   40       2
    47   39   41      am
    48   42   43      ar
    49   43   44      ar
    50   45   46      ar
    51   45   47      ar
    52   45   48      ar
    53   43   72       1
    54    5   49       1
    55    5   50       1
    56    6   51       1
    57    8   52       1
    58    9   53       1
    59   10   54       1
    60   12   55       1
    61   14   56       1
    62   18   57       1
    63   18   58       1
    64   20   59       1
    65   44   73       1
    66   28   60       1
    67   28   61       1
    68   29   62       1
    69   31   63       1
    70   32   64       1
    71   33   65       1
    72   34   66       1
    73   35   67       1
    74   37   68       1
    75   41   69       1
    76   41   70       1
    77   42   71       1
@<TRIPOS>SUBSTRUCTURE
     1 NAP313      1 GROUP             4 A     NAP     0 **** NAP A 313
