@<TRIPOS>MOLECULE
2cvy_TTP_1_ligand
   42    43     1     0     0
SMALL
NO_CHARGES


@<TRIPOS>ATOM
     1 PA          -9.5530    48.1530    24.8160 P.3          1 TTP1001   0.0000
     2 O1A         -9.2850    49.6160    25.0880 O.co2        1 TTP1001   0.0000
     3 O2A         -8.9290    47.2590    25.8580 O.co2        1 TTP1001  -1.0000
     4 O3A        -11.1550    47.9460    24.7460 O.3          1 TTP1001   0.0000
     5 PB         -11.9970    47.3730    25.9980 P.3          1 TTP1001   0.0000
     6 O1B        -13.4520    47.5440    25.6760 O.co2        1 TTP1001   0.0000
     7 O2B        -11.6160    47.9570    27.3280 O.co2        1 TTP1001  -1.0000
     8 O3B        -11.4220    45.8650    26.0130 O.3          1 TTP1001   0.0000
     9 PG         -12.3420    44.5760    25.8530 P.3          1 TTP1001   0.0000
    10 O1G        -13.5210    44.7980    26.7670 O.co2        1 TTP1001   0.0000
    11 O2G        -12.7090    44.3050    24.4240 O.co2        1 TTP1001  -1.0000
    12 O3G        -11.5710    43.3840    26.3420 O.co2        1 TTP1001  -1.0000
    13 O5'         -9.1600    47.7230    23.3120 O.3          1 TTP1001   0.0000
    14 C5'         -8.7690    46.3760    23.0720 C.3          1 TTP1001   0.0000
    15 C4'         -8.0310    46.1610    21.7490 C.3          1 TTP1001   0.0000
    16 O4'         -8.8320    46.5900    20.6570 O.3          1 TTP1001   0.0000
    17 C3'         -6.6870    46.8440    21.6360 C.3          1 TTP1001   0.0000
    18 O3'         -5.7850    45.9470    20.9340 O.3          1 TTP1001   0.0000
    19 C2'         -7.0260    48.0660    20.8130 C.3          1 TTP1001   0.0000
    20 C1'         -8.1370    47.5480    19.8990 C.3          1 TTP1001   0.0000
    21 N1          -9.0260    48.6330    19.4710 N.pl3        1 TTP1001   0.0000
    22 C2          -9.0590    48.9970    18.1010 C.2          1 TTP1001   0.0000
    23 O2          -8.3480    48.3680    17.2700 O.2          1 TTP1001   0.0000
    24 N3          -9.8390    50.0110    17.6880 N.pl3        1 TTP1001   0.0000
    25 C4         -10.6160    50.6890    18.5670 C.2          1 TTP1001   0.0000
    26 O4         -11.3490    51.6340    18.1730 O.2          1 TTP1001   0.0000
    27 C5         -10.6000    50.3150    20.0170 C.2          1 TTP1001   0.0000
    28 C5M        -11.4410    51.0090    21.0510 C.3          1 TTP1001   0.0000
    29 C6          -9.7710    49.2720    20.4000 C.2          1 TTP1001   0.0000
    30 H5'1        -9.5914    45.8071    23.0679 H            1 TTP1001   0.0000
    31 H5'2        -8.1675    46.0870    23.8168 H            1 TTP1001   0.0000
    32 H4'         -7.8796    45.1781    21.6443 H            1 TTP1001   0.0000
    33 H3'         -6.3274    47.0957    22.5345 H            1 TTP1001   0.0000
    34 H5          -5.6966    45.0938    21.4480 H            1 TTP1001   0.0000
    35 H2'1        -6.2365    48.3758    20.2831 H            1 TTP1001   0.0000
    36 H2'2        -7.3527    48.8130    21.3920 H            1 TTP1001   0.0000
    37 H1'         -7.7327    47.1102    19.0959 H            1 TTP1001   0.0000
    38 H9          -9.8459    50.2677    16.7215 H            1 TTP1001   0.0000
    39 H5M1       -11.2726    50.5991    21.9475 H            1 TTP1001   0.0000
    40 H5M2       -11.2022    51.9797    21.0781 H            1 TTP1001   0.0000
    41 H5M3       -12.4078    50.9100    20.8155 H            1 TTP1001   0.0000
    42 H13         -9.7245    48.9937    21.3594 H            1 TTP1001   0.0000
@<TRIPOS>BOND
     1    1    2      ar
     2    1    3      ar
     3    1    4       1
     4    1   13       1
     5    4    5       1
     6    5    6      ar
     7    5    7      ar
     8    5    8       1
     9    8    9       1
    10    9   10      ar
    11    9   11      ar
    12    9   12      ar
    13   13   14       1
    14   14   15       1
    15   15   16       1
    16   15   17       1
    17   16   20       1
    18   17   18       1
    19   17   19       1
    20   19   20       1
    21   20   21       1
    22   21   22       1
    23   21   29       1
    24   22   23       2
    25   22   24       1
    26   24   25       1
    27   25   26       2
    28   25   27       1
    29   27   28       1
    30   27   29       2
    31   29   42       1
    32   28   41       1
    33   28   40       1
    34   28   39       1
    35   14   30       1
    36   14   31       1
    37   15   32       1
    38   17   33       1
    39   18   34       1
    40   19   35       1
    41   19   36       1
    42   20   37       1
    43   24   38       1
@<TRIPOS>SUBSTRUCTURE
     1 TTP1001     1 GROUP             4 A     TTP     0 **** TTP A1001
