@<TRIPOS>MOLECULE
4yco_FMN_2_ligand
   50    52     1     0     0
SMALL
NO_CHARGES


@<TRIPOS>ATOM
     1 N1           4.1910    80.8780   276.5170 N.2          1 FMN402   0.0000
     2 C2           4.8740    81.6640   277.3780 C.2          1 FMN402   0.0000
     3 O2           5.7790    81.1970   278.0910 O.2          1 FMN402   0.0000
     4 N3           4.6010    83.0290   277.4210 N.pl3        1 FMN402   0.0000
     5 C4           3.7090    83.6990   276.6100 C.2          1 FMN402   0.0000
     6 O4           3.5550    84.9100   276.7410 O.2          1 FMN402   0.0000
     7 C4A          3.0220    82.8310   275.6550 C.2          1 FMN402   0.0000
     8 N5           2.1500    83.3640   274.8540 N.2          1 FMN402   0.0000
     9 C5A          1.3970    82.5080   274.0620 C.ar         1 FMN402   0.0000
    10 C6           0.4090    83.0570   273.2420 C.ar         1 FMN402   0.0000
    11 C7          -0.3950    82.2520   272.4430 C.ar         1 FMN402   0.0000
    12 C7M         -1.4500    82.8880   271.5790 C.3          1 FMN402   0.0000
    13 C8          -0.2080    80.8540   272.4570 C.ar         1 FMN402   0.0000
    14 C8M         -0.9470    79.9670   271.4910 C.3          1 FMN402   0.0000
    15 C9           0.7570    80.3010   273.2920 C.ar         1 FMN402   0.0000
    16 C9A          1.5710    81.1080   274.0860 C.ar         1 FMN402   0.0000
    17 N10          2.5650    80.5740   274.9430 N.pl3        1 FMN402   0.0000
    18 C10          3.3040    81.4250   275.7120 C.2          1 FMN402   0.0000
    19 C1'          2.7340    79.1130   275.1120 C.3          1 FMN402   0.0000
    20 C2'          1.6810    78.5580   276.0690 C.3          1 FMN402   0.0000
    21 O2'          1.9450    78.9680   277.4120 O.3          1 FMN402   0.0000
    22 C3'          1.6240    77.0280   276.0330 C.3          1 FMN402   0.0000
    23 O3'          2.8800    76.5230   276.4670 O.3          1 FMN402   0.0000
    24 C4'          1.3040    76.4350   274.6600 C.3          1 FMN402   0.0000
    25 O4'          0.1030    77.0270   274.1540 O.3          1 FMN402   0.0000
    26 C5'          1.1870    74.9220   274.7020 C.3          1 FMN402   0.0000
    27 O5'          0.0990    74.5840   275.5780 O.3          1 FMN402   0.0000
    28 P           -1.3130    74.1600   275.0580 P.3          1 FMN402   0.0000
    29 O1P         -1.1420    73.0290   274.0720 O.co2        1 FMN402   0.0000
    30 O2P         -2.1620    73.8380   276.2740 O.co2        1 FMN402  -1.0000
    31 O3P         -1.9870    75.4050   274.4100 O.co2        1 FMN402  -1.0000
    32 H1           5.0956    83.5714   278.1001 H            1 FMN402   0.0000
    33 H2           0.2772    84.0482   273.2292 H            1 FMN402   0.0000
    34 H7M1        -1.9372    82.1779   271.0706 H            1 FMN402   0.0000
    35 H7M2        -2.0962    83.3880   272.1556 H            1 FMN402   0.0000
    36 H7M3        -1.0178    83.5208   270.9366 H            1 FMN402   0.0000
    37 H8M1        -0.6888    79.0139   271.6491 H            1 FMN402   0.0000
    38 H8M2        -1.9319    80.0726   271.6280 H            1 FMN402   0.0000
    39 H8M3        -0.7112    80.2252   270.5541 H            1 FMN402   0.0000
    40 H9           0.8690    79.3078   273.3235 H            1 FMN402   0.0000
    41 H1'1         3.6445    78.9280   275.4818 H            1 FMN402   0.0000
    42 H1'2         2.6383    78.6659   274.2227 H            1 FMN402   0.0000
    43 H2'          0.7870    78.9151   275.7984 H            1 FMN402   0.0000
    44 H13          1.4803    79.8347   277.5934 H            1 FMN402   0.0000
    45 H3'          0.9229    76.7241   276.6781 H            1 FMN402   0.0000
    46 H15          2.7476    75.6367   276.9108 H            1 FMN402   0.0000
    47 H4'          2.0513    76.6709   274.0388 H            1 FMN402   0.0000
    48 H17         -0.6849    76.4858   274.4479 H            1 FMN402   0.0000
    49 H5'1         2.0372    74.5255   275.0484 H            1 FMN402   0.0000
    50 H5'2         1.0050    74.5702   273.7838 H            1 FMN402   0.0000
@<TRIPOS>BOND
     1    1    2       1
     2    1   18       2
     3    2    3       2
     4    2    4       1
     5    4    5       1
     6    5    6       2
     7    5    7       1
     8    7    8       2
     9    7   18       1
    10    8    9       1
    11    9   10      ar
    12    9   16      ar
    13   10   11      ar
    14   11   12       1
    15   11   13      ar
    16   13   14       1
    17   13   15      ar
    18   15   16      ar
    19   16   17       1
    20   17   18       1
    21   17   19       1
    22   19   20       1
    23   20   21       1
    24   20   22       1
    25   22   23       1
    26   22   24       1
    27   24   25       1
    28   24   26       1
    29   26   27       1
    30   27   28       1
    31   28   29      ar
    32   28   30      ar
    33   28   31      ar
    34    4   32       1
    35   10   33       1
    36   12   34       1
    37   12   35       1
    38   12   36       1
    39   14   37       1
    40   14   38       1
    41   14   39       1
    42   15   40       1
    43   19   41       1
    44   19   42       1
    45   20   43       1
    46   21   44       1
    47   22   45       1
    48   23   46       1
    49   24   47       1
    50   25   48       1
    51   26   49       1
    52   26   50       1
@<TRIPOS>SUBSTRUCTURE
     1 FMN402      1 GROUP             4 B     FMN     0 **** FMN B 402
