@<TRIPOS>MOLECULE
4b6l_9ZP_1_ligand
   65    70     1     0     0
SMALL
NO_CHARGES


@<TRIPOS>ATOM
     1 N2          60.0800    -7.0320    -8.9500 N.am         1 9ZP1333   0.0000
     2 C3          61.3520    -7.7760    -9.0200 C.3          1 9ZP1333   0.0000
     3 C4          61.7020    -8.6700    -7.8300 C.3          1 9ZP1333   0.0000
     4 C5          61.3140    -9.2980    -9.1710 C.3          1 9ZP1333   0.0000
     5 C6          59.8190    -6.0660    -9.8490 C.2          1 9ZP1333   0.0000
     6 O7          60.4900    -6.0150   -10.8780 O.2          1 9ZP1333   0.0000
     7 C8          58.5140    -5.3770    -9.8450 C.ar         1 9ZP1333   0.0000
     8 C9          58.0050    -4.9040   -11.0670 C.ar         1 9ZP1333   0.0000
     9 C10         56.8220    -4.2160   -11.1110 C.ar         1 9ZP1333   0.0000
    10 O11         56.3070    -3.7700   -12.3060 O.3          1 9ZP1333   0.0000
    11 C12         57.0540    -3.9960   -13.5080 C.3          1 9ZP1333   0.0000
    12 C13         56.0890    -4.0240    -9.9370 C.ar         1 9ZP1333   0.0000
    13 C14         56.6170    -4.4290    -8.6960 C.ar         1 9ZP1333   0.0000
    14 C15         57.8100    -5.1340    -8.6490 C.ar         1 9ZP1333   0.0000
    15 N16         54.9240    -3.2830   -10.0510 N.pl3        1 9ZP1333   0.0000
    16 C18         53.8340    -3.3210    -9.2080 C.ar         1 9ZP1333   0.0000
    17 N19         53.8570    -4.0270    -8.0750 N.ar         1 9ZP1333   0.0000
    18 C20         52.7850    -4.0620    -7.2730 C.ar         1 9ZP1333   0.0000
    19 C21         51.6500    -3.2570    -7.6440 C.ar         1 9ZP1333   0.0000
    20 C22         51.6860    -2.5450    -8.8050 C.ar         1 9ZP1333   0.0000
    21 N23         52.7730    -2.6210    -9.5910 N.ar         1 9ZP1333   0.0000
    22 N24         50.5450    -3.2020    -6.7700 N.pl3        1 9ZP1333   0.0000
    23 C25         49.4720    -2.4090    -6.7110 C.2          1 9ZP1333   0.0000
    24 N26         48.8080    -2.7410    -5.6370 N.2          1 9ZP1333   0.0000
    25 N27         49.4150    -3.6960    -5.0200 N.2          1 9ZP1333   0.0000
    26 C28         50.5000    -4.0010    -5.6370 C.2          1 9ZP1333   0.0000
    27 C29         51.5610    -5.0670    -5.3390 C.3          1 9ZP1333   0.0000
    28 C31         51.0030    -6.4720    -5.6820 C.3          1 9ZP1333   0.0000
    29 C32         50.6420    -6.5830    -7.1870 C.3          1 9ZP1333   0.0000
    30 N33         52.8130    -4.7740    -6.0830 N.pl3        1 9ZP1333   0.0000
    31 C34         54.0890    -5.4670    -5.6990 C.3          1 9ZP1333   0.0000
    32 C35         54.1430    -5.8800    -4.2000 C.3          1 9ZP1333   0.0000
    33 C36         55.2430    -6.9710    -4.1740 C.3          1 9ZP1333   0.0000
    34 C37         55.1250    -7.7000    -5.5450 C.3          1 9ZP1333   0.0000
    35 C38         54.3050    -6.7850    -6.4750 C.3          1 9ZP1333   0.0000
    36 H1          59.4133    -7.2453    -8.2358 H            1 9ZP1333   0.0000
    37 H2          62.1166    -7.3059    -9.4610 H            1 9ZP1333   0.0000
    38 H3          61.0789    -8.7312    -7.0503 H            1 9ZP1333   0.0000
    39 H4          62.6467    -8.7251    -7.5068 H            1 9ZP1333   0.0000
    40 H5          62.0052    -9.7631    -9.7241 H            1 9ZP1333   0.0000
    41 H6          60.4373    -9.7693    -9.2676 H            1 9ZP1333   0.0000
    42 H7          58.5119    -5.0717   -11.9125 H            1 9ZP1333   0.0000
    43 H8          56.5542    -3.6177   -14.2872 H            1 9ZP1333   0.0000
    44 H9          57.9457    -3.5492   -13.4353 H            1 9ZP1333   0.0000
    45 H10         57.1834    -4.9787   -13.6403 H            1 9ZP1333   0.0000
    46 H11         56.1322    -4.2084    -7.8497 H            1 9ZP1333   0.0000
    47 H12         58.1668    -5.4663    -7.7759 H            1 9ZP1333   0.0000
    48 H13         54.8679    -2.6543   -10.8266 H            1 9ZP1333   0.0000
    49 H14         50.9108    -1.9713    -9.0696 H            1 9ZP1333   0.0000
    50 H15         49.2239    -1.6953    -7.3661 H            1 9ZP1333   0.0000
    51 H16         51.7648    -5.0412    -4.3603 H            1 9ZP1333   0.0000
    52 H17         50.1814    -6.6382    -5.1368 H            1 9ZP1333   0.0000
    53 H18         51.6944    -7.1599    -5.4612 H            1 9ZP1333   0.0000
    54 H19         50.2857    -7.4977    -7.3777 H            1 9ZP1333   0.0000
    55 H20         49.9473    -5.9006    -7.4144 H            1 9ZP1333   0.0000
    56 H21         51.4603    -6.4223    -7.7388 H            1 9ZP1333   0.0000
    57 H22         54.8558    -4.8541    -5.8898 H            1 9ZP1333   0.0000
    58 H23         53.2642    -6.2493    -3.8977 H            1 9ZP1333   0.0000
    59 H24         54.3945    -5.1032    -3.6227 H            1 9ZP1333   0.0000
    60 H25         55.0852    -7.6106    -3.4217 H            1 9ZP1333   0.0000
    61 H26         56.1471    -6.5555    -4.0741 H            1 9ZP1333   0.0000
    62 H27         54.6588    -8.5770    -5.4283 H            1 9ZP1333   0.0000
    63 H28         56.0345    -7.8547    -5.9307 H            1 9ZP1333   0.0000
    64 H29         54.8078    -6.6107    -7.3217 H            1 9ZP1333   0.0000
    65 H30         53.4253    -7.2086    -6.6909 H            1 9ZP1333   0.0000
@<TRIPOS>BOND
     1    1    2       1
     2    1    5      am
     3    2    3       1
     4    2    4       1
     5    3    4       1
     6    5    6       2
     7    5    7       1
     8    7    8      ar
     9    7   14      ar
    10    8    9      ar
    11    9   10       1
    12    9   12      ar
    13   10   11       1
    14   12   13      ar
    15   12   15       1
    16   13   14      ar
    17   15   16       1
    18   16   17      ar
    19   16   21      ar
    20   17   18      ar
    21   18   19      ar
    22   18   30       1
    23   19   20      ar
    24   19   22       1
    25   20   21      ar
    26   22   23       1
    27   22   26       1
    28   23   24       2
    29   24   25       1
    30   25   26       2
    31   26   27       1
    32   27   28       1
    33   27   30       1
    34   28   29       1
    35   30   31       1
    36   31   32       1
    37   31   35       1
    38   32   33       1
    39   33   34       1
    40   34   35       1
    41    1   36       1
    42    2   37       1
    43    3   38       1
    44    3   39       1
    45    4   40       1
    46    4   41       1
    47    8   42       1
    48   11   43       1
    49   11   44       1
    50   11   45       1
    51   13   46       1
    52   14   47       1
    53   15   48       1
    54   20   49       1
    55   23   50       1
    56   27   51       1
    57   28   52       1
    58   28   53       1
    59   29   54       1
    60   29   55       1
    61   29   56       1
    62   31   57       1
    63   32   58       1
    64   32   59       1
    65   33   60       1
    66   33   61       1
    67   34   62       1
    68   34   63       1
    69   35   64       1
    70   35   65       1
@<TRIPOS>SUBSTRUCTURE
     1 9ZP1333     1 GROUP             4 A     9ZP     0 **** 9ZP A1333
