@<TRIPOS>MOLECULE
2daa_DCS_2_ligand
   34    35     1     0     0
SMALL
NO_CHARGES


@<TRIPOS>ATOM
     1 N1          43.1950    27.2920    33.3820 N.ar         1 DCS285   0.0000
     2 C2          43.3220    27.9210    32.1940 C.ar         1 DCS285   0.0000
     3 C2A         42.1580    28.7750    31.7690 C.3          1 DCS285   0.0000
     4 C3          44.4640    27.7980    31.3940 C.ar         1 DCS285   0.0000
     5 O3          44.4670    28.4140    30.1540 O.3          1 DCS285  -1.0000
     6 C4          45.5690    27.0380    31.8660 C.ar         1 DCS285   0.0000
     7 C4A         46.8260    26.8080    31.0450 C.3          1 DCS285   0.0000
     8 C5          45.4560    26.4600    33.1450 C.ar         1 DCS285   0.0000
     9 C6          44.2480    26.5780    33.8350 C.ar         1 DCS285   0.0000
    10 C5A         46.5980    25.7030    33.7710 C.3          1 DCS285   0.0000
    11 O4P         46.6410    24.4070    33.1920 O.3          1 DCS285   0.0000
    12 P           47.9770    23.6310    33.2370 P.3          1 DCS285   0.0000
    13 O1P         47.7480    22.2750    32.6980 O.co2        1 DCS285   0.0000
    14 O2P         48.9780    24.3440    32.4100 O.co2        1 DCS285  -1.0000
    15 O3P         48.4450    23.5410    34.6550 O.co2        1 DCS285  -1.0000
    16 N           46.8400    27.5210    29.8060 N.pl3        1 DCS285   0.0000
    17 CA          47.9150    27.7360    29.0620 C.2          1 DCS285   0.0000
    18 C           47.9490    28.4900    27.8070 C.2          1 DCS285   0.0000
    19 O           46.9510    28.7740    27.1570 O.3          1 DCS285   0.0000
    20 ND          49.2140    28.8240    27.5740 N.pl3        1 DCS285  -1.0000
    21 OG          50.1150    28.1120    28.3940 O.3          1 DCS285   0.0000
    22 CB          49.3600    27.3120    29.2990 C.3          1 DCS285   0.0000
    23 H2A1        42.3563    29.1911    30.8816 H            1 DCS285   0.0000
    24 H2A2        41.3377    28.2078    31.6954 H            1 DCS285   0.0000
    25 H2A3        42.0065    29.4936    32.4477 H            1 DCS285   0.0000
    26 H4A1        46.9001    25.8304    30.8478 H            1 DCS285   0.0000
    27 H4A2        47.6147    27.0996    31.5863 H            1 DCS285   0.0000
    28 H6          44.1575    26.1079    34.7130 H            1 DCS285   0.0000
    29 H5A1        46.4542    25.6284    34.7578 H            1 DCS285   0.0000
    30 H5A2        47.4583    26.1813    33.5947 H            1 DCS285   0.0000
    31 H9          45.9700    27.8862    29.4748 H            1 DCS285   0.0000
    32 H10         46.0478    28.4879    27.4770 H            1 DCS285   0.0000
    33 HB1         49.4813    26.3399    29.0983 H            1 DCS285   0.0000
    34 HB2         49.6320    27.4937    30.2440 H            1 DCS285   0.0000
@<TRIPOS>BOND
     1    1    2      ar
     2    1    9      ar
     3    2    3       1
     4    2    4      ar
     5    4    5       1
     6    4    6      ar
     7    6    7       1
     8    6    8      ar
     9    7   16       1
    10    8    9      ar
    11    8   10       1
    12   10   11       1
    13   11   12       1
    14   12   13      ar
    15   12   14      ar
    16   12   15      ar
    17   16   17       1
    18   17   18       2
    19   17   22       1
    20   18   19       1
    21   18   20       1
    22   20   21       1
    23   21   22       1
    24    3   23       1
    25    3   24       1
    26    3   25       1
    27   19   32       1
    28    7   26       1
    29    7   27       1
    30    9   28       1
    31   10   29       1
    32   10   30       1
    33   22   34       1
    34   22   33       1
    35   16   31       1
@<TRIPOS>SUBSTRUCTURE
     1 DCS285      1 GROUP             4 B     DCS     0 **** DCS B 285
