@<TRIPOS>MOLECULE
2b9f_ADP_1_ligand
   39    41     1     0     0
SMALL
NO_CHARGES


@<TRIPOS>ATOM
     1 PB          35.5860     4.7280    34.4690 P.3          1 ADP500   0.0000
     2 O1B         36.7650     5.6230    34.7470 O.co2        1 ADP500   0.0000
     3 O2B         35.2850     3.8240    35.6450 O.co2        1 ADP500  -1.0000
     4 O3B         34.3020     5.4840    34.0210 O.co2        1 ADP500  -1.0000
     5 PA          35.3470     3.2350    32.0050 P.3          1 ADP500   0.0000
     6 O1A         35.6370     1.7660    31.8350 O.co2        1 ADP500   0.0000
     7 O2A         33.9010     3.6010    31.9870 O.co2        1 ADP500  -1.0000
     8 O3A         36.0220     3.6760    33.3650 O.3          1 ADP500   0.0000
     9 O5'         36.1810     3.9220    30.8370 O.3          1 ADP500   0.0000
    10 C5'         36.1580     5.3700    30.6520 C.3          1 ADP500   0.0000
    11 C4'         36.1240     5.7770    29.1770 C.3          1 ADP500   0.0000
    12 O4'         37.2440     5.1270    28.5320 O.3          1 ADP500   0.0000
    13 C3'         34.9180     5.2700    28.3850 C.3          1 ADP500   0.0000
    14 O3'         33.8190     6.1600    28.6180 O.3          1 ADP500   0.0000
    15 C2'         35.4870     5.1890    26.9660 C.3          1 ADP500   0.0000
    16 O2'         35.4910     6.4560    26.2920 O.3          1 ADP500   0.0000
    17 C1'         36.9360     4.7110    27.1950 C.3          1 ADP500   0.0000
    18 N9          37.0480     3.2100    27.1570 N.pl3        1 ADP500   0.0000
    19 C8          36.8950     2.3380    28.2090 C.2          1 ADP500   0.0000
    20 N7          37.0640     1.0590    27.8700 N.2          1 ADP500   0.0000
    21 C5          37.3430     1.1200    26.5380 C.ar         1 ADP500   0.0000
    22 C6          37.6330     0.0690    25.5950 C.ar         1 ADP500   0.0000
    23 N6          37.6910    -1.2060    25.8660 N.pl3        1 ADP500   0.0000
    24 N1          37.8680     0.5290    24.3000 N.ar         1 ADP500   0.0000
    25 C2          37.8300     1.8730    23.9390 C.ar         1 ADP500   0.0000
    26 N3          37.5680     2.8600    24.8070 N.ar         1 ADP500   0.0000
    27 C4          37.3310     2.4390    26.0780 C.ar         1 ADP500   0.0000
    28 H5'1        36.9776     5.7592    31.0724 H            1 ADP500   0.0000
    29 H5'2        35.3451     5.7373    31.1040 H            1 ADP500   0.0000
    30 H4'         36.2029     6.7701    29.0899 H            1 ADP500   0.0000
    31 H3'         34.6754     4.3522    28.6992 H            1 ADP500   0.0000
    32 H5          33.0198     5.8436    28.1070 H            1 ADP500   0.0000
    33 H2'         34.9813     4.5137    26.4291 H            1 ADP500   0.0000
    34 H7          34.6288     6.5742    25.7994 H            1 ADP500   0.0000
    35 H1'         37.5597     5.1327    26.5369 H            1 ADP500   0.0000
    36 H9          36.6778     2.6342    29.1391 H            1 ADP500   0.0000
    37 H10         37.9003    -1.8622    25.1411 H            1 ADP500   0.0000
    38 H11         37.5261    -1.5269    26.7986 H            1 ADP500   0.0000
    39 H12         38.0070     2.1139    22.9847 H            1 ADP500   0.0000
@<TRIPOS>BOND
     1    1    2      ar
     2    1    3      ar
     3    1    4      ar
     4    1    8       1
     5    5    6      ar
     6    5    7      ar
     7    5    8       1
     8    5    9       1
     9    9   10       1
    10   10   11       1
    11   11   12       1
    12   11   13       1
    13   12   17       1
    14   13   14       1
    15   13   15       1
    16   15   16       1
    17   15   17       1
    18   17   18       1
    19   18   19       1
    20   18   27       1
    21   19   20       2
    22   20   21       1
    23   21   22      ar
    24   21   27      ar
    25   22   23       1
    26   22   24      ar
    27   24   25      ar
    28   25   26      ar
    29   26   27      ar
    30   25   39       1
    31   23   38       1
    32   23   37       1
    33   10   28       1
    34   10   29       1
    35   11   30       1
    36   13   31       1
    37   14   32       1
    38   15   33       1
    39   16   34       1
    40   17   35       1
    41   19   36       1
@<TRIPOS>SUBSTRUCTURE
     1 ADP500      1 GROUP             4 A     ADP     0 **** ADP A 500
