@<TRIPOS>MOLECULE
2vt2_NAD_1_ligand
   39    41     1     0     0
SMALL
NO_CHARGES


@<TRIPOS>ATOM
     1 PA          19.0560    11.5640   -32.1990 P.3          1 NAD1210   0.0000
     2 O1A         19.2540    11.5390   -30.7090 O.co2        1 NAD1210   0.0000
     3 O2A         20.2550    11.6980   -33.0990 O.co2        1 NAD1210  -1.0000
     4 O5B         18.0840    12.8230   -32.5170 O.3          1 NAD1210   0.0000
     5 C5B         16.7140    12.8050   -32.0930 C.3          1 NAD1210   0.0000
     6 C4B         15.8250    13.1800   -33.2770 C.3          1 NAD1210   0.0000
     7 O4B         16.2160    14.4720   -33.7470 O.3          1 NAD1210   0.0000
     8 C3B         15.9330    12.2130   -34.4670 C.3          1 NAD1210   0.0000
     9 O3B         14.6310    11.9350   -34.9840 O.3          1 NAD1210   0.0000
    10 C2B         16.7090    12.9800   -35.5080 C.3          1 NAD1210   0.0000
    11 O2B         16.2780    12.6550   -36.8290 O.3          1 NAD1210   0.0000
    12 C1B         16.3070    14.4050   -35.1720 C.3          1 NAD1210   0.0000
    13 N9A         17.2520    15.4250   -35.6320 N.pl3        1 NAD1210   0.0000
    14 C8A         18.5890    15.2980   -35.6640 C.2          1 NAD1210   0.0000
    15 N7A         19.1190    16.4340   -36.1280 N.2          1 NAD1210   0.0000
    16 C5A         18.1250    17.2950   -36.4010 C.ar         1 NAD1210   0.0000
    17 C6A         18.0290    18.6660   -36.9120 C.ar         1 NAD1210   0.0000
    18 N6A         19.1760    19.3400   -37.2310 N.pl3        1 NAD1210   0.0000
    19 N1A         16.7880    19.2050   -37.0540 N.ar         1 NAD1210   0.0000
    20 C2A         15.6670    18.5330   -36.7340 C.ar         1 NAD1210   0.0000
    21 N3A         15.6950    17.2680   -36.2660 N.ar         1 NAD1210   0.0000
    22 C4A         16.8780    16.6170   -36.0810 C.ar         1 NAD1210   0.0000
    23 O3          18.1750    10.2810   -32.7020 O.3          1 NAD1210   0.0000
    24 PN          17.4590     9.1150   -31.8210 P.3          1 NAD1210   0.0000
    25 O1N         16.6250     9.7540   -30.7350 O.co2        1 NAD1210   0.0000
    26 O2N         16.5850     8.3970   -32.8390 O.co2        1 NAD1210  -1.0000
    27 O5D         18.5920     8.2350   -31.3180 O.co2        1 NAD1210  -1.0000
    28 H5B1        16.5830    13.4644   -31.3527 H            1 NAD1210   0.0000
    29 H5B2        16.4745    11.8894   -31.7701 H            1 NAD1210   0.0000
    30 H4B         14.8734    13.2176   -32.9720 H            1 NAD1210   0.0000
    31 H3B         16.4074    11.3716   -34.2083 H            1 NAD1210   0.0000
    32 H5          14.2041    12.7868   -35.2877 H            1 NAD1210   0.0000
    33 H2B         17.6941    12.8443   -35.4020 H            1 NAD1210   0.0000
    34 H7          15.5406    13.2734   -37.1006 H            1 NAD1210   0.0000
    35 H1B         15.4071    14.5920   -35.5659 H            1 NAD1210   0.0000
    36 H8A         19.1034    14.4867   -35.3862 H            1 NAD1210   0.0000
    37 H6A1        19.1254    20.2756   -37.5805 H            1 NAD1210   0.0000
    38 H6A2        20.0650    18.8971   -37.1146 H            1 NAD1210   0.0000
    39 H2A         14.7830    18.9867   -36.8469 H            1 NAD1210   0.0000
@<TRIPOS>BOND
     1    1    2      ar
     2    1    3      ar
     3    1    4       1
     4    1   23       1
     5    4    5       1
     6    5    6       1
     7    6    7       1
     8    6    8       1
     9    7   12       1
    10    8    9       1
    11    8   10       1
    12   10   11       1
    13   10   12       1
    14   12   13       1
    15   13   14       1
    16   13   22       1
    17   14   15       2
    18   15   16       1
    19   16   17      ar
    20   16   22      ar
    21   17   18       1
    22   17   19      ar
    23   19   20      ar
    24   20   21      ar
    25   21   22      ar
    26   23   24       1
    27   24   25      ar
    28   24   26      ar
    29   24   27      ar
    30   20   39       1
    31    5   28       1
    32    5   29       1
    33    6   30       1
    34    8   31       1
    35    9   32       1
    36   10   33       1
    37   11   34       1
    38   12   35       1
    39   14   36       1
    40   18   37       1
    41   18   38       1
@<TRIPOS>SUBSTRUCTURE
     1 NAD1210     1 GROUP             4 A     NAD     0 **** NAD A1210
