@<TRIPOS>MOLECULE
2vrb_NAP_1_ligand
   73    77     1     0     0
SMALL
NO_CHARGES


@<TRIPOS>ATOM
     1 PA           7.7220    26.8570    -0.5780 P.3          1 NAP1286   0.0000
     2 O1A          8.8370    27.3790     0.2730 O.co2        1 NAP1286   0.0000
     3 O2A          7.8300    26.9400    -2.0670 O.co2        1 NAP1286  -1.0000
     4 O5B          6.3940    27.6380    -0.1120 O.3          1 NAP1286   0.0000
     5 C5B          6.1840    28.1480     1.1900 C.3          1 NAP1286   0.0000
     6 C4B          4.9740    29.0790     1.0650 C.3          1 NAP1286   0.0000
     7 O4B          4.5570    29.5180     2.3410 O.3          1 NAP1286   0.0000
     8 C3B          5.3060    30.3300     0.2340 C.3          1 NAP1286   0.0000
     9 O3B          4.1940    30.6140    -0.5880 O.3          1 NAP1286   0.0000
    10 C2B          5.4810    31.4280     1.2530 C.3          1 NAP1286   0.0000
    11 O2B          5.1200    32.7260     0.8190 O.3          1 NAP1286   0.0000
    12 C1B          4.4970    30.9400     2.3060 C.3          1 NAP1286   0.0000
    13 N9A          4.7940    31.6200     3.5680 N.pl3        1 NAP1286   0.0000
    14 C8A          5.9810    31.7570     4.2220 C.2          1 NAP1286   0.0000
    15 N7A          5.7570    32.4940     5.3390 N.2          1 NAP1286   0.0000
    16 C5A          4.4420    32.8360     5.3750 C.ar         1 NAP1286   0.0000
    17 C6A          3.6740    33.5950     6.2660 C.ar         1 NAP1286   0.0000
    18 N6A          4.2160    34.1520     7.3590 N.pl3        1 NAP1286   0.0000
    19 N1A          2.3280    33.7380     5.9870 N.ar         1 NAP1286   0.0000
    20 C2A          1.7350    33.1950     4.8640 C.ar         1 NAP1286   0.0000
    21 N3A          2.5040    32.4580     3.9900 N.ar         1 NAP1286   0.0000
    22 C4A          3.8270    32.2860     4.2610 C.ar         1 NAP1286   0.0000
    23 O3           7.3730    25.3340    -0.1650 O.3          1 NAP1286   0.0000
    24 PN           6.5950    24.2040    -1.0050 P.3          1 NAP1286   0.0000
    25 O1N          5.4120    24.7340    -1.7130 O.co2        1 NAP1286   0.0000
    26 O2N          7.6470    23.5090    -1.8390 O.co2        1 NAP1286  -1.0000
    27 O5D          6.0290    23.2340     0.1900 O.3          1 NAP1286   0.0000
    28 C5D          4.9080    23.6570     0.9460 C.3          1 NAP1286   0.0000
    29 C4D          5.0600    23.4820     2.4640 C.3          1 NAP1286   0.0000
    30 O4D          5.3880    22.1360     2.7310 O.3          1 NAP1286   0.0000
    31 C3D          6.1660    24.3270     3.0900 C.3          1 NAP1286   0.0000
    32 O3D          5.6450    25.5050     3.6750 O.3          1 NAP1286   0.0000
    33 C2D          6.8360    23.4070     4.1010 C.3          1 NAP1286   0.0000
    34 O2D          6.3160    23.4840     5.4210 O.3          1 NAP1286   0.0000
    35 C1D          6.4880    22.0150     3.6170 C.3          1 NAP1286   0.0000
    36 N1N          7.6450    21.3630     2.9600 N.ar         1 NAP1286   1.0000
    37 C2N          7.5610    20.0620     2.7020 C.ar         1 NAP1286   0.0000
    38 C3N          8.5560    19.3010     2.1390 C.ar         1 NAP1286   0.0000
    39 C7N          8.4570    17.9040     1.8730 C.2          1 NAP1286   0.0000
    40 O7N          9.6460    17.3400     1.2940 O.2          1 NAP1286   0.0000
    41 N7N          7.3040    17.2510     2.2050 N.am         1 NAP1286   0.0000
    42 C4N          9.7570    20.0140     1.8160 C.ar         1 NAP1286   0.0000
    43 C5N          9.8490    21.3460     2.0660 C.ar         1 NAP1286   0.0000
    44 C6N          8.7550    22.0060     2.6600 C.ar         1 NAP1286   0.0000
    45 P2B          6.1430    33.6630    -0.0580 P.3          1 NAP1286   0.0000
    46 O1X          6.1970    33.1210    -1.4820 O.co2        1 NAP1286   0.0000
    47 O2X          7.5170    33.6830     0.5890 O.co2        1 NAP1286  -1.0000
    48 O3X          5.5440    35.0630    -0.0810 O.co2        1 NAP1286  -1.0000
    49 H5B1         6.9870    28.6561     1.5015 H            1 NAP1286   0.0000
    50 H5B2         5.9904    27.4051     1.8308 H            1 NAP1286   0.0000
    51 H4B          4.2234    28.5842     0.6271 H            1 NAP1286   0.0000
    52 H3B          6.1363    30.1988    -0.3076 H            1 NAP1286   0.0000
    53 H5           4.3859    31.4257    -1.1397 H            1 NAP1286   0.0000
    54 H2B          6.4130    31.4255     1.6154 H            1 NAP1286   0.0000
    55 H1B          3.5767    31.2056     2.0186 H            1 NAP1286   0.0000
    56 H8A          6.8608    31.3813     3.9308 H            1 NAP1286   0.0000
    57 H6A1         3.6467    34.6900     7.9807 H            1 NAP1286   0.0000
    58 H6A2         5.1894    34.0293     7.5523 H            1 NAP1286   0.0000
    59 H2A          0.7607    33.3349     4.6876 H            1 NAP1286   0.0000
    60 H5D1         4.1133    23.1278     0.6487 H            1 NAP1286   0.0000
    61 H5D2         4.7522    24.6267     0.7576 H            1 NAP1286   0.0000
    62 H4D          4.1907    23.7009     2.9071 H            1 NAP1286   0.0000
    63 H3D          6.8284    24.5764     2.3836 H            1 NAP1286   0.0000
    64 H16          4.7126    25.3346     3.9937 H            1 NAP1286   0.0000
    65 H2D          7.8266    23.5440     4.1022 H            1 NAP1286   0.0000
    66 H18          6.8157    24.1805     5.9360 H            1 NAP1286   0.0000
    67 H1D          6.2097    21.4615     4.4020 H            1 NAP1286   0.0000
    68 H2N          6.7054    19.6005     2.9364 H            1 NAP1286   0.0000
    69 H7N1         7.2152    16.2711     2.0264 H            1 NAP1286   0.0000
    70 H7N2         6.5488    17.7529     2.6266 H            1 NAP1286   0.0000
    71 H4N         10.5293    19.5293     1.4054 H            1 NAP1286   0.0000
    72 H5N         10.6802    21.8503     1.8321 H            1 NAP1286   0.0000
    73 H6N          8.8226    22.9838     2.8582 H            1 NAP1286   0.0000
@<TRIPOS>BOND
     1    1    2      ar
     2    1    3      ar
     3    1    4       1
     4    1   23       1
     5    4    5       1
     6    5    6       1
     7    6    7       1
     8    6    8       1
     9    7   12       1
    10    8    9       1
    11    8   10       1
    12   10   11       1
    13   10   12       1
    14   11   45       1
    15   12   13       1
    16   13   14       1
    17   13   22       1
    18   14   15       2
    19   15   16       1
    20   16   17      ar
    21   16   22      ar
    22   17   18       1
    23   17   19      ar
    24   19   20      ar
    25   20   21      ar
    26   21   22      ar
    27   23   24       1
    28   24   25      ar
    29   24   26      ar
    30   24   27       1
    31   27   28       1
    32   28   29       1
    33   29   30       1
    34   29   31       1
    35   30   35       1
    36   31   32       1
    37   31   33       1
    38   33   34       1
    39   33   35       1
    40   35   36       1
    41   36   37      ar
    42   36   44      ar
    43   37   38      ar
    44   38   39       1
    45   38   42      ar
    46   39   40       2
    47   39   41      am
    48   42   43      ar
    49   43   44      ar
    50   45   46      ar
    51   45   47      ar
    52   45   48      ar
    53   43   72       1
    54    5   49       1
    55    5   50       1
    56    6   51       1
    57    8   52       1
    58    9   53       1
    59   10   54       1
    60   12   55       1
    61   14   56       1
    62   18   57       1
    63   18   58       1
    64   20   59       1
    65   44   73       1
    66   28   60       1
    67   28   61       1
    68   29   62       1
    69   31   63       1
    70   32   64       1
    71   33   65       1
    72   34   66       1
    73   35   67       1
    74   37   68       1
    75   41   69       1
    76   41   70       1
    77   42   71       1
@<TRIPOS>SUBSTRUCTURE
     1 NAP1286     1 GROUP             4 A     NAP     0 **** NAP A1286
