@<TRIPOS>MOLECULE
5fl3_ADP_1_ligand
   40    42     1     0     0
SMALL
NO_CHARGES


@<TRIPOS>ATOM
     1 PB          23.1910    24.2630    32.9470 P.3          1 ADP400   0.0000
     2 O1B         22.1760    24.6040    31.8650 O.co2        1 ADP400   0.0000
     3 O2B         22.6880    24.4930    34.3560 O.co2        1 ADP400  -1.0000
     4 O3B         23.8730    22.9260    32.7710 O.co2        1 ADP400  -1.0000
     5 PA          25.6430    25.3320    31.7950 P.3          1 ADP400   0.0000
     6 O1A         25.1480    24.9440    30.4120 O.co2        1 ADP400   0.0000
     7 O2A         26.8600    24.6510    32.4130 O.co2        1 ADP400  -1.0000
     8 O3A         24.3740    25.3510    32.8060 O.3          1 ADP400   0.0000
     9 O5'         25.9780    26.9080    31.8050 O.3          1 ADP400   0.0000
    10 C5'         25.2820    27.8670    31.0060 C.3          1 ADP400   0.0000
    11 C4'         26.2670    29.0050    30.7240 C.3          1 ADP400   0.0000
    12 O4'         26.8150    29.4960    31.9520 O.3          1 ADP400   0.0000
    13 C3'         27.4330    28.5630    29.8500 C.3          1 ADP400   0.0000
    14 O3'         27.5220    29.5110    28.7860 O.3          1 ADP400   0.0000
    15 C2'         28.6620    28.6020    30.7550 C.3          1 ADP400   0.0000
    16 O2'         29.8180    29.1430    30.1080 O.3          1 ADP400   0.0000
    17 C1'         28.2520    29.5030    31.9120 C.3          1 ADP400   0.0000
    18 N9          28.8000    29.0440    33.2240 N.pl3        1 ADP400   0.0000
    19 C8          28.8240    27.7670    33.6670 C.2          1 ADP400   0.0000
    20 N7          29.3760    27.6690    34.9060 N.2          1 ADP400   1.0000
    21 C5          29.7280    28.9190    35.2800 C.ar         1 ADP400   0.0000
    22 C6          30.3630    29.5350    36.4700 C.ar         1 ADP400   0.0000
    23 N6          30.7250    28.7610    37.5170 N.pl3        1 ADP400   0.0000
    24 N1          30.5490    30.8920    36.4640 N.ar         1 ADP400   0.0000
    25 C2          30.1790    31.6640    35.4200 C.ar         1 ADP400   0.0000
    26 N3          29.5940    31.1700    34.3080 N.ar         1 ADP400   0.0000
    27 C4          29.3480    29.8300    34.1740 C.ar         1 ADP400   0.0000
    28 H5'1        24.4861    28.2152    31.5013 H            1 ADP400   0.0000
    29 H5'2        24.9839    27.4489    30.1479 H            1 ADP400   0.0000
    30 H4'         25.7810    29.7488    30.2651 H            1 ADP400   0.0000
    31 H3'         27.2818    27.6409    29.4939 H            1 ADP400   0.0000
    32 H5          28.4189    29.9527    28.8072 H            1 ADP400   0.0000
    33 H2'         28.8623    27.6831    31.0950 H            1 ADP400   0.0000
    34 H7          30.5467    28.4582    30.1000 H            1 ADP400   0.0000
    35 H1'         28.5703    30.4336    31.7314 H            1 ADP400   0.0000
    36 H9          28.4772    26.9873    33.1457 H            1 ADP400   0.0000
    37 H10         31.1533    29.1749    38.3203 H            1 ADP400   0.0000
    38 H11         30.5645    27.7744    37.4885 H            1 ADP400   0.0000
    39 H12         30.3462    32.6485    35.4729 H            1 ADP400   0.0000
    40 H13         29.4981    26.8316    35.4388 H            1 ADP400   0.0000
@<TRIPOS>BOND
     1    1    2      ar
     2    1    3      ar
     3    1    4      ar
     4    1    8       1
     5    5    6      ar
     6    5    7      ar
     7    5    8       1
     8    5    9       1
     9    9   10       1
    10   10   11       1
    11   11   12       1
    12   11   13       1
    13   12   17       1
    14   13   14       1
    15   13   15       1
    16   15   16       1
    17   15   17       1
    18   17   18       1
    19   18   19       1
    20   18   27       1
    21   19   20       2
    22   20   21       1
    23   21   22      ar
    24   21   27      ar
    25   22   23       1
    26   22   24      ar
    27   24   25      ar
    28   25   26      ar
    29   26   27      ar
    30   25   39       1
    31   23   38       1
    32   23   37       1
    33   10   28       1
    34   10   29       1
    35   11   30       1
    36   13   31       1
    37   14   32       1
    38   15   33       1
    39   16   34       1
    40   17   35       1
    41   19   36       1
    42   20   40       1
@<TRIPOS>SUBSTRUCTURE
     1 ADP400      1 GROUP             4 A     ADP     0 **** ADP A 400
