@<TRIPOS>MOLECULE
3m34_TPP_1_ligand
   42    43     1     0     0
SMALL
NO_CHARGES


@<TRIPOS>ATOM
     1 N1'          4.9470    31.7790     9.7380 N.ar         1 TPP7327   0.0000
     2 C2'          5.8500    31.8170     8.7110 C.ar         1 TPP7327   0.0000
     3 CM2          5.3580    31.8640     7.2550 C.3          1 TPP7327   0.0000
     4 N3'          7.1660    31.9420     8.9910 N.ar         1 TPP7327   0.0000
     5 C4'          7.5990    31.9730    10.2650 C.ar         1 TPP7327   0.0000
     6 N4'          8.9070    32.1040    10.5250 N.pl3        1 TPP7327   0.0000
     7 C5'          6.6860    31.8680    11.3480 C.ar         1 TPP7327   0.0000
     8 C6'          5.3470    31.8020    11.0080 C.ar         1 TPP7327   0.0000
     9 C7'          7.1180    31.8760    12.8210 C.3          1 TPP7327   0.0000
    10 N3           7.7850    30.5970    13.1840 N.2          1 TPP7327   1.0000
    11 C2           9.1320    30.4560    13.2310 C.2          1 TPP7327   0.0000
    12 S1           9.5350    28.8150    13.5490 S.3          1 TPP7327   0.0000
    13 C5           7.9040    28.3960    13.8770 C.2          1 TPP7327   0.0000
    14 C4           7.1100    29.4850    13.5320 C.2          1 TPP7327   0.0000
    15 CM4          5.5980    29.4460    13.6470 C.3          1 TPP7327   0.0000
    16 C6           7.5750    27.0030    14.3080 C.3          1 TPP7327   0.0000
    17 C7           8.4040    26.1820    13.3690 C.3          1 TPP7327   0.0000
    18 O7           8.6540    25.0510    13.9720 O.3          1 TPP7327   0.0000
    19 PA           9.6470    24.1310    13.4430 P.3          1 TPP7327   0.0000
    20 O1A          8.7340    23.0630    13.9200 O.co2        1 TPP7327   0.0000
    21 O2A          9.5450    24.4880    12.0330 O.co2        1 TPP7327  -1.0000
    22 O3A         10.6430    24.7410    14.3200 O.3          1 TPP7327   0.0000
    23 PB          11.5990    23.9850    15.3850 P.3          1 TPP7327   0.0000
    24 O1B         10.7640    24.4410    16.5520 O.co2        1 TPP7327   0.0000
    25 O2B         11.3120    22.4670    15.6320 O.co2        1 TPP7327  -1.0000
    26 O3B         12.8240    24.6210    15.7110 O.co2        1 TPP7327  -1.0000
    27 HM21         6.1446    31.8878     6.6380 H            1 TPP7327   0.0000
    28 HM22         4.8079    31.0514     7.0626 H            1 TPP7327   0.0000
    29 HM23         4.8016    32.6834     7.1175 H            1 TPP7327   0.0000
    30 H4'1         9.2288    32.1270    11.4715 H            1 TPP7327   0.0000
    31 H4'2         9.5613    32.1787     9.7725 H            1 TPP7327   0.0000
    32 H6'          4.6611    31.7707    11.7350 H            1 TPP7327   0.0000
    33 H7'1         6.3111    32.0001    13.3984 H            1 TPP7327   0.0000
    34 H7'2         7.7551    32.6320    12.9715 H            1 TPP7327   0.0000
    35 H9           9.7925    31.1954    13.1003 H            1 TPP7327   0.0000
    36 HM41         5.3077    28.5276    13.9160 H            1 TPP7327   0.0000
    37 HM42         5.2990    30.1054    14.3368 H            1 TPP7327   0.0000
    38 HM43         5.1904    29.6792    12.7641 H            1 TPP7327   0.0000
    39 H13          6.6004    26.8089    14.1966 H            1 TPP7327   0.0000
    40 H14          7.8398    26.8450    15.2593 H            1 TPP7327   0.0000
    41 H15          9.2591    26.6568    13.1606 H            1 TPP7327   0.0000
    42 H16          7.9001    26.0156    12.5214 H            1 TPP7327   0.0000
@<TRIPOS>BOND
     1    1    2      ar
     2    1    8      ar
     3    2    3       1
     4    2    4      ar
     5    4    5      ar
     6    5    6       1
     7    5    7      ar
     8    7    8      ar
     9    7    9       1
    10    9   10       1
    11   10   11       2
    12   10   14       1
    13   11   12       1
    14   12   13       1
    15   13   14       2
    16   13   16       1
    17   14   15       1
    18   16   17       1
    19   17   18       1
    20   18   19       1
    21   19   20      ar
    22   19   21      ar
    23   19   22       1
    24   22   23       1
    25   23   24      ar
    26   23   25      ar
    27   23   26      ar
    28    3   27       1
    29    3   28       1
    30    3   29       1
    31    6   30       1
    32    6   31       1
    33    8   32       1
    34    9   33       1
    35    9   34       1
    36   11   35       1
    37   15   36       1
    38   15   37       1
    39   15   38       1
    40   16   39       1
    41   16   40       1
    42   17   41       1
    43   17   42       1
@<TRIPOS>SUBSTRUCTURE
     1 TPP7327     1 GROUP             4 A     TPP     0 **** TPP A7327
