@<TRIPOS>MOLECULE
4do0_DZA_1_ligand
   22    21     1     0     0
SMALL
NO_CHARGES


@<TRIPOS>ATOM
     1 O10        -12.1070   -20.3480    25.3220 O.co2        1 DZA501   0.0000
     2 C09        -12.7600   -20.4680    24.2310 C.2          1 DZA501   0.0000
     3 O11        -12.2300   -20.5000    23.0750 O.co2        1 DZA501  -1.0000
     4 C08        -14.3100   -20.6070    24.2950 C.3          1 DZA501   0.0000
     5 C07        -14.8220   -20.0530    25.6730 C.3          1 DZA501   0.0000
     6 C02        -16.2580   -19.4170    25.6310 C.2          1 DZA501   0.0000
     7 O01        -16.4510   -18.2210    25.3480 O.2          1 DZA501   0.0000
     8 N03        -17.2440   -20.2420    26.0420 N.am         1 DZA501   0.0000
     9 N04        -18.4820   -19.8500    25.9420 N.3          1 DZA501   0.0000
    10 C06        -18.8740   -20.2070    24.5470 C.3          1 DZA501   0.0000
    11 C05        -19.3960   -20.3900    26.9800 C.3          1 DZA501   0.0000
    12 H1         -14.5633   -21.5704    24.2069 H            1 DZA501   0.0000
    13 H2         -14.7237   -20.0841    23.5498 H            1 DZA501   0.0000
    14 H3         -14.1800   -19.3528    25.9853 H            1 DZA501   0.0000
    15 H4         -14.8350   -20.8090    26.3274 H            1 DZA501   0.0000
    16 H5         -17.0268   -21.1426    26.4184 H            1 DZA501   0.0000
    17 H6         -19.8232   -19.9356    24.3877 H            1 DZA501   0.0000
    18 H7         -18.2780   -19.7301    23.9009 H            1 DZA501   0.0000
    19 H8         -18.7834   -21.1945    24.4177 H            1 DZA501   0.0000
    20 H9         -20.3195   -20.0386    26.8264 H            1 DZA501   0.0000
    21 H10        -19.4064   -21.3886    26.9281 H            1 DZA501   0.0000
    22 H11        -19.0777   -20.1065    27.8846 H            1 DZA501   0.0000
@<TRIPOS>BOND
     1    1    2      ar
     2    2    3      ar
     3    2    4       1
     4    4    5       1
     5    5    6       1
     6    6    7       2
     7    6    8      am
     8    8    9       1
     9    9   10       1
    10    9   11       1
    11   11   22       1
    12    4   12       1
    13    4   13       1
    14    5   14       1
    15    5   15       1
    16    8   16       1
    17   10   17       1
    18   10   18       1
    19   10   19       1
    20   11   20       1
    21   11   21       1
@<TRIPOS>SUBSTRUCTURE
     1 DZA501      1 GROUP             4 A     DZA     0 **** DZA A 501
