@<TRIPOS>MOLECULE
2rkv_ZBA_1_ligand
   67    70     1     0     0
SMALL
NO_CHARGES


@<TRIPOS>ATOM
     1 O18         30.2890    29.1090    11.0080 O.2          1 ZBA454   0.0000
     2 C44         29.8620    30.1840    10.8860 C.2          1 ZBA454   0.0000
     3 C45         29.8010    30.9670     9.6250 C.3          1 ZBA454   0.0000
     4 C46         28.4490    31.0090     9.0810 C.3          1 ZBA454   0.0000
     5 C48         27.9700    29.6770     8.8130 C.3          1 ZBA454   0.0000
     6 C47         28.2590    31.6770     7.7540 C.3          1 ZBA454   0.0000
     7 O17         29.3240    30.8360    11.9220 O.3          1 ZBA454   0.0000
     8 C31         29.0810    30.1780    13.1750 C.3          1 ZBA454   0.0000
     9 C30         30.2880    30.1800    14.0520 C.3          1 ZBA454   0.0000
    10 C32         27.8900    30.8490    13.7490 C.2          1 ZBA454   0.0000
    11 C39         26.6370    30.7080    12.9150 C.3          1 ZBA454   0.0000
    12 C33         27.9530    31.5250    14.8540 C.2          1 ZBA454   0.0000
    13 C34         29.1750    31.6830    15.6750 C.3          1 ZBA454   0.0000
    14 O10         29.0420    30.6950    16.7160 O.3          1 ZBA454   0.0000
    15 C29         30.4900    31.4260    14.9140 C.3          1 ZBA454   0.0000
    16 C38         30.7640    32.6280    14.0170 C.3          1 ZBA454   0.0000
    17 O12         31.5360    32.2410    12.8910 O.3          1 ZBA454   0.0000
    18 C40         32.4800    33.0250    12.3970 C.2          1 ZBA454   0.0000
    19 C41         33.1190    32.3760    11.1920 C.3          1 ZBA454   0.0000
    20 O13         32.8130    34.0340    12.8000 O.2          1 ZBA454   0.0000
    21 C28         31.6700    31.2490    15.9600 C.3          1 ZBA454   0.0000
    22 C37         33.0670    31.1460    15.3170 C.3          1 ZBA454   0.0000
    23 C35         31.3130    30.0450    16.8220 C.3          1 ZBA454   0.0000
    24 C25         30.1330    30.5390    17.5750 C.3          1 ZBA454   0.0000
    25 C36         31.8010    28.6970    16.7480 C.3          1 ZBA454   0.0000
    26 O11         32.3900    29.5960    17.6570 O.3          1 ZBA454   0.0000
    27 C27         31.5840    32.3690    17.0500 C.3          1 ZBA454   0.0000
    28 C26         30.6390    31.8400    18.1130 C.3          1 ZBA454   0.0000
    29 O16         29.6070    32.7330    18.4250 O.3          1 ZBA454   0.0000
    30 O14         32.8910    32.4460    17.6280 O.3          1 ZBA454   0.0000
    31 C42         33.4360    33.5110    18.2030 C.2          1 ZBA454   0.0000
    32 O15         34.5310    33.4990    18.6640 O.2          1 ZBA454   0.0000
    33 C43         32.5190    34.6200    18.2350 C.3          1 ZBA454   0.0000
    34 H1          30.4082    30.5449     8.9518 H            1 ZBA454   0.0000
    35 H2          30.1055    31.9016     9.8088 H            1 ZBA454   0.0000
    36 H3          27.8446    31.4414     9.7501 H            1 ZBA454   0.0000
    37 H4          27.0430    29.7247     8.4411 H            1 ZBA454   0.0000
    38 H5          28.5728    29.2331     8.1500 H            1 ZBA454   0.0000
    39 H6          27.9618    29.1486     9.6620 H            1 ZBA454   0.0000
    40 H7          27.2936    31.6378     7.4963 H            1 ZBA454   0.0000
    41 H8          28.5486    32.6321     7.8171 H            1 ZBA454   0.0000
    42 H9          28.8079    31.2072     7.0627 H            1 ZBA454   0.0000
    43 H10         28.8386    29.2269    12.9836 H            1 ZBA454   0.0000
    44 H11         31.0920    30.0803    13.4657 H            1 ZBA454   0.0000
    45 H12         30.2222    29.3921    14.6643 H            1 ZBA454   0.0000
    46 H13         25.8816    31.1843    13.3651 H            1 ZBA454   0.0000
    47 H14         26.7914    31.1072    12.0112 H            1 ZBA454   0.0000
    48 H15         26.4091    29.7393    12.8170 H            1 ZBA454   0.0000
    49 H16         27.1172    31.9710    15.1742 H            1 ZBA454   0.0000
    50 H17         29.1931    32.5975    16.0791 H            1 ZBA454   0.0000
    51 H18         31.2646    33.3198    14.5374 H            1 ZBA454   0.0000
    52 H19         29.8945    33.0105    13.7043 H            1 ZBA454   0.0000
    53 H20         33.8302    32.9771    10.8275 H            1 ZBA454   0.0000
    54 H21         33.5258    31.5028    11.4602 H            1 ZBA454   0.0000
    55 H22         32.4240    32.2184    10.4905 H            1 ZBA454   0.0000
    56 H23         33.7563    31.0366    16.0331 H            1 ZBA454   0.0000
    57 H24         33.0946    30.3561    14.7044 H            1 ZBA454   0.0000
    58 H25         33.2565    31.9784    14.7963 H            1 ZBA454   0.0000
    59 H26         29.9058    29.9142    18.3220 H            1 ZBA454   0.0000
    60 H27         32.3122    28.3954    15.9432 H            1 ZBA454   0.0000
    61 H28         31.2373    27.9435    17.0865 H            1 ZBA454   0.0000
    62 H29         31.2818    33.2447    16.6734 H            1 ZBA454   0.0000
    63 H30         31.1646    31.6580    18.9441 H            1 ZBA454   0.0000
    64 H31         29.7108    33.5656    17.8809 H            1 ZBA454   0.0000
    65 H32         32.9591    35.4039    18.6731 H            1 ZBA454   0.0000
    66 H33         32.2576    34.8635    17.3010 H            1 ZBA454   0.0000
    67 H34         31.7032    34.3631    18.7532 H            1 ZBA454   0.0000
@<TRIPOS>BOND
     1    1    2       2
     2    2    3       1
     3    2    7       1
     4    3    4       1
     5    4    5       1
     6    4    6       1
     7    7    8       1
     8    8    9       1
     9    8   10       1
    10    9   15       1
    11   10   11       1
    12   10   12       2
    13   12   13       1
    14   13   14       1
    15   13   15       1
    16   14   24       1
    17   15   16       1
    18   15   21       1
    19   16   17       1
    20   17   18       1
    21   18   19       1
    22   18   20       2
    23   21   22       1
    24   21   23       1
    25   21   27       1
    26   23   24       1
    27   23   25       1
    28   23   26       1
    29   24   28       1
    30   25   26       1
    31   27   28       1
    32   27   30       1
    33   28   29       1
    34   30   31       1
    35   31   32       2
    36   31   33       1
    37    3   34       1
    38    3   35       1
    39    4   36       1
    40    5   37       1
    41    5   38       1
    42    5   39       1
    43    6   40       1
    44    6   41       1
    45    6   42       1
    46    8   43       1
    47    9   44       1
    48    9   45       1
    49   11   46       1
    50   11   47       1
    51   11   48       1
    52   12   49       1
    53   13   50       1
    54   16   51       1
    55   16   52       1
    56   19   53       1
    57   19   54       1
    58   19   55       1
    59   22   56       1
    60   22   57       1
    61   22   58       1
    62   24   59       1
    63   25   60       1
    64   25   61       1
    65   27   62       1
    66   28   63       1
    67   29   64       1
    68   33   65       1
    69   33   66       1
    70   33   67       1
@<TRIPOS>SUBSTRUCTURE
     1 ZBA454      1 GROUP             4 A     ZBA     0 **** ZBA A 454
