@<TRIPOS>MOLECULE
2eer_NAD_1_ligand
   70    74     1     0     0
SMALL
NO_CHARGES


@<TRIPOS>ATOM
     1 PA           8.3120    -0.7900    53.8610 P.3          1 NAD401   0.0000
     2 O1A          9.1530    -1.8510    54.3900 O.co2        1 NAD401   0.0000
     3 O2A          8.8870    -0.2130    52.6280 O.co2        1 NAD401  -1.0000
     4 O5B          6.8290    -1.2470    53.3890 O.3          1 NAD401   0.0000
     5 C5B          5.9990    -2.1920    54.1140 C.3          1 NAD401   0.0000
     6 C4B          5.4980    -3.3400    53.2370 C.3          1 NAD401   0.0000
     7 O4B          4.1620    -3.0610    52.7170 O.3          1 NAD401   0.0000
     8 C3B          6.3030    -3.7280    51.9540 C.3          1 NAD401   0.0000
     9 O3B          6.9100    -5.0210    52.0990 O.3          1 NAD401   0.0000
    10 C2B          5.2170    -3.6430    50.8530 C.3          1 NAD401   0.0000
    11 O2B          5.4260    -4.6140    49.7930 O.3          1 NAD401   0.0000
    12 C1B          3.9790    -3.9320    51.6560 C.3          1 NAD401   0.0000
    13 N9A          2.7350    -3.6210    50.9280 N.pl3        1 NAD401   0.0000
    14 C8A          2.4730    -2.6200    50.0020 C.2          1 NAD401   0.0000
    15 N7A          1.1950    -2.6290    49.5240 N.2          1 NAD401   0.0000
    16 C5A          0.6170    -3.7090    50.1970 C.ar         1 NAD401   0.0000
    17 C6A         -0.7210    -4.2710    50.1560 C.ar         1 NAD401   0.0000
    18 N6A         -1.6970    -3.7860    49.3870 N.pl3        1 NAD401   0.0000
    19 N1A         -0.9590    -5.3700    50.9720 N.ar         1 NAD401   0.0000
    20 C2A          0.0590    -5.8710    51.7720 C.ar         1 NAD401   0.0000
    21 N3A          1.3080    -5.4250    51.8770 N.ar         1 NAD401   0.0000
    22 C4A          1.5440    -4.3400    51.0690 C.ar         1 NAD401   0.0000
    23 O3           8.1600     0.3230    54.9580 O.3          1 NAD401   0.0000
    24 PN           8.0230     0.3440    56.5720 P.3          1 NAD401   0.0000
    25 O1N          9.2640     1.0410    57.0020 O.co2        1 NAD401   0.0000
    26 O2N          7.9650    -1.0410    57.0680 O.co2        1 NAD401  -1.0000
    27 O5D          6.8200     1.3270    56.9460 O.3          1 NAD401   0.0000
    28 C5D          5.4640     0.9940    56.6250 C.3          1 NAD401   0.0000
    29 C4D          4.5630     2.1270    57.1080 C.3          1 NAD401   0.0000
    30 O4D          4.6490     2.2890    58.5690 O.3          1 NAD401   0.0000
    31 C3D          4.8370     3.5090    56.4960 C.3          1 NAD401   0.0000
    32 O3D          3.6490     4.2210    56.1350 O.3          1 NAD401   0.0000
    33 C2D          5.6440     4.1770    57.6180 C.3          1 NAD401   0.0000
    34 O2D          5.6520     5.6140    57.4670 O.3          1 NAD401   0.0000
    35 C1D          4.9030     3.6520    58.8260 C.3          1 NAD401   0.0000
    36 N1N          5.6060     3.8340    60.1340 N.ar         1 NAD401   1.0000
    37 C2N          4.7430     4.1620    61.1720 C.ar         1 NAD401   0.0000
    38 C3N          5.3110     4.3660    62.4290 C.ar         1 NAD401   0.0000
    39 C7N          4.4540     4.7220    63.6460 C.2          1 NAD401   0.0000
    40 O7N          5.0070     4.9010    64.7230 O.2          1 NAD401   0.0000
    41 N7N          3.1200     4.8310    63.5150 N.am         1 NAD401   0.0000
    42 C4N          6.7490     4.2370    62.6520 C.ar         1 NAD401   0.0000
    43 C5N          7.5190     3.8910    61.4980 C.ar         1 NAD401   0.0000
    44 C6N          7.0230     3.6780    60.2260 C.ar         1 NAD401   0.0000
    45 H5B1         5.2081    -1.7040    54.4832 H            1 NAD401   0.0000
    46 H5B2         6.5349    -2.5756    54.8661 H            1 NAD401   0.0000
    47 H4B          5.4346    -4.1552    53.8126 H            1 NAD401   0.0000
    48 H3B          7.0104    -3.0425    51.7814 H            1 NAD401   0.0000
    49 H5           6.1992    -5.7077    52.2515 H            1 NAD401   0.0000
    50 H2B          5.1776    -2.7183    50.4744 H            1 NAD401   0.0000
    51 H7           4.9485    -5.4629    50.0197 H            1 NAD401   0.0000
    52 H1B          3.9760    -4.8804    51.9730 H            1 NAD401   0.0000
    53 H8A          3.1590    -1.9528    49.7117 H            1 NAD401   0.0000
    54 H6A1        -2.6012    -4.2129    49.3982 H            1 NAD401   0.0000
    55 H6A2        -1.5245    -2.9955    48.7993 H            1 NAD401   0.0000
    56 H2A         -0.1746    -6.6622    52.3372 H            1 NAD401   0.0000
    57 H5D1         5.2085     0.1415    57.0810 H            1 NAD401   0.0000
    58 H5D2         5.3682     0.8846    55.6356 H            1 NAD401   0.0000
    59 H4D          3.6199     1.8793    56.8860 H            1 NAD401   0.0000
    60 H3D          5.4176     3.4038    55.6887 H            1 NAD401   0.0000
    61 H17          3.8973     5.1076    55.7449 H            1 NAD401   0.0000
    62 H2D          6.5816     3.8294    57.6162 H            1 NAD401   0.0000
    63 H19          4.7135     5.9578    57.4993 H            1 NAD401   0.0000
    64 H1D          4.0238     4.1255    58.8791 H            1 NAD401   0.0000
    65 H2N          3.7577     4.2480    61.0242 H            1 NAD401   0.0000
    66 H7N1         2.5570     5.0635    64.3081 H            1 NAD401   0.0000
    67 H7N2         2.6910     4.6796    62.6245 H            1 NAD401   0.0000
    68 H4N          7.1659     4.3807    63.5495 H            1 NAD401   0.0000
    69 H5N          8.5065     3.7943    61.6228 H            1 NAD401   0.0000
    70 H6N          7.6001     3.4379    59.4454 H            1 NAD401   0.0000
@<TRIPOS>BOND
     1    1    2      ar
     2    1    3      ar
     3    1    4       1
     4    1   23       1
     5    4    5       1
     6    5    6       1
     7    6    7       1
     8    6    8       1
     9    7   12       1
    10    8    9       1
    11    8   10       1
    12   10   11       1
    13   10   12       1
    14   12   13       1
    15   13   14       1
    16   13   22       1
    17   14   15       2
    18   15   16       1
    19   16   17      ar
    20   16   22      ar
    21   17   18       1
    22   17   19      ar
    23   19   20      ar
    24   20   21      ar
    25   21   22      ar
    26   23   24       1
    27   24   25      ar
    28   24   26      ar
    29   24   27       1
    30   27   28       1
    31   28   29       1
    32   29   30       1
    33   29   31       1
    34   30   35       1
    35   31   32       1
    36   31   33       1
    37   33   34       1
    38   33   35       1
    39   35   36       1
    40   36   37      ar
    41   36   44      ar
    42   37   38      ar
    43   38   39       1
    44   38   42      ar
    45   39   40       2
    46   39   41      am
    47   42   43      ar
    48   43   44      ar
    49   44   70       1
    50    5   45       1
    51    5   46       1
    52    6   47       1
    53    8   48       1
    54    9   49       1
    55   10   50       1
    56   11   51       1
    57   12   52       1
    58   14   53       1
    59   18   54       1
    60   18   55       1
    61   20   56       1
    62   43   69       1
    63   28   57       1
    64   28   58       1
    65   29   59       1
    66   31   60       1
    67   32   61       1
    68   33   62       1
    69   34   63       1
    70   35   64       1
    71   37   65       1
    72   41   66       1
    73   41   67       1
    74   42   68       1
@<TRIPOS>SUBSTRUCTURE
     1 NAD401      1 GROUP             4 A     NAD     0 **** NAD A 401
