@<TRIPOS>MOLECULE
4yus_FMN_1_ligand
   50    52     1     0     0
SMALL
NO_CHARGES


@<TRIPOS>ATOM
     1 N1          -3.6390    22.3700    -5.0450 N.2          1 FMN401   0.0000
     2 C2          -3.1960    22.8030    -3.8090 C.2          1 FMN401   0.0000
     3 O2          -3.1800    24.0040    -3.5530 O.2          1 FMN401   0.0000
     4 N3          -2.7720    21.8930    -2.8630 N.pl3        1 FMN401   0.0000
     5 C4          -2.7910    20.5440    -3.1520 C.2          1 FMN401   0.0000
     6 O4          -2.4110    19.7230    -2.3140 O.2          1 FMN401   0.0000
     7 C4A         -3.2370    20.1090    -4.3990 C.2          1 FMN401   0.0000
     8 N5          -3.2440    18.7580    -4.6710 N.2          1 FMN401   0.0000
     9 C5A         -3.6770    18.3020    -5.8970 C.ar         1 FMN401   0.0000
    10 C6          -3.6860    16.9380    -6.1560 C.ar         1 FMN401   0.0000
    11 C7          -4.1220    16.4610    -7.3870 C.ar         1 FMN401   0.0000
    12 C7M         -4.1180    14.9830    -7.6370 C.3          1 FMN401   0.0000
    13 C8          -4.5570    17.3560    -8.3620 C.ar         1 FMN401   0.0000
    14 C8M         -5.0270    16.8520    -9.6980 C.3          1 FMN401   0.0000
    15 C9          -4.5530    18.7230    -8.0940 C.ar         1 FMN401   0.0000
    16 C9A         -4.1080    19.2050    -6.8620 C.ar         1 FMN401   0.0000
    17 N10         -4.1090    20.5670    -6.5940 N.pl3        1 FMN401   0.0000
    18 C10         -3.6630    21.0230    -5.3590 C.2          1 FMN401   0.0000
    19 C1'         -4.5570    21.4990    -7.6900 C.3          1 FMN401   0.0000
    20 C2'         -5.6940    22.4400    -7.3700 C.3          1 FMN401   0.0000
    21 O2'         -6.8970    21.8530    -7.7980 O.3          1 FMN401   0.0000
    22 C3'         -5.5000    23.7430    -8.1400 C.3          1 FMN401   0.0000
    23 O3'         -4.9710    23.4630    -9.4230 O.3          1 FMN401   0.0000
    24 C4'         -4.5730    24.7310    -7.4310 C.3          1 FMN401   0.0000
    25 O4'         -4.5090    24.4820    -6.0410 O.3          1 FMN401   0.0000
    26 C5'         -5.1000    26.1400    -7.6660 C.3          1 FMN401   0.0000
    27 O5'         -4.0460    27.0050    -8.0060 O.3          1 FMN401   0.0000
    28 P           -4.3820    28.5490    -8.3130 P.3          1 FMN401   0.0000
    29 O1P         -3.8120    29.4270    -7.2230 O.co2        1 FMN401   0.0000
    30 O2P         -3.7820    28.9030    -9.6550 O.co2        1 FMN401  -1.0000
    31 O3P         -5.8850    28.7290    -8.3330 O.co2        1 FMN401  -1.0000
    32 H1          -2.4518    22.2101    -1.9703 H            1 FMN401   0.0000
    33 H2          -3.3776    16.2959    -5.4541 H            1 FMN401   0.0000
    34 H7M1        -4.4566    14.8001    -8.5600 H            1 FMN401   0.0000
    35 H7M2        -3.1856    14.6325    -7.5485 H            1 FMN401   0.0000
    36 H7M3        -4.7091    14.5304    -6.9693 H            1 FMN401   0.0000
    37 H8M1        -5.3000    17.6262   -10.2691 H            1 FMN401   0.0000
    38 H8M2        -4.2852    16.3528   -10.1457 H            1 FMN401   0.0000
    39 H8M3        -5.8085    16.2418    -9.5679 H            1 FMN401   0.0000
    40 H9          -4.8720    19.3652    -8.7910 H            1 FMN401   0.0000
    41 H1'1        -4.8408    20.9365    -8.4666 H            1 FMN401   0.0000
    42 H1'2        -3.7693    22.0564    -7.9523 H            1 FMN401   0.0000
    43 H2'         -5.7276    22.6206    -6.3870 H            1 FMN401   0.0000
    44 H13         -6.8567    21.6912    -8.7840 H            1 FMN401   0.0000
    45 H3'         -6.3936    24.1767    -8.2555 H            1 FMN401   0.0000
    46 H15         -4.8448    24.3183    -9.9255 H            1 FMN401   0.0000
    47 H4'         -3.6548    24.6556    -7.8199 H            1 FMN401   0.0000
    48 H17         -4.1629    23.5571    -5.8836 H            1 FMN401   0.0000
    49 H5'1        -5.5417    26.4703    -6.8319 H            1 FMN401   0.0000
    50 H5'2        -5.7662    26.1229    -8.4116 H            1 FMN401   0.0000
@<TRIPOS>BOND
     1    1    2       1
     2    1   18       2
     3    2    3       2
     4    2    4       1
     5    4    5       1
     6    5    6       2
     7    5    7       1
     8    7    8       2
     9    7   18       1
    10    8    9       1
    11    9   10      ar
    12    9   16      ar
    13   10   11      ar
    14   11   12       1
    15   11   13      ar
    16   13   14       1
    17   13   15      ar
    18   15   16      ar
    19   16   17       1
    20   17   18       1
    21   17   19       1
    22   19   20       1
    23   20   21       1
    24   20   22       1
    25   22   23       1
    26   22   24       1
    27   24   25       1
    28   24   26       1
    29   26   27       1
    30   27   28       1
    31   28   29      ar
    32   28   30      ar
    33   28   31      ar
    34    4   32       1
    35   10   33       1
    36   12   34       1
    37   12   35       1
    38   12   36       1
    39   14   37       1
    40   14   38       1
    41   14   39       1
    42   15   40       1
    43   19   41       1
    44   19   42       1
    45   20   43       1
    46   21   44       1
    47   22   45       1
    48   23   46       1
    49   24   47       1
    50   25   48       1
    51   26   49       1
    52   26   50       1
@<TRIPOS>SUBSTRUCTURE
     1 FMN401      1 GROUP             4 A     FMN     0 **** FMN A 401
