@<TRIPOS>MOLECULE
1xz8_5GP_1_ligand
   36    38     1     0     0
SMALL
NO_CHARGES


@<TRIPOS>ATOM
     1 P           27.2360     1.7090     9.9370 P.3          1 5GP200   0.0000
     2 O1P         26.4230     2.4430     8.9610 O.co2        1 5GP200   0.0000
     3 O2P         28.6680     1.4950     9.5360 O.co2        1 5GP200  -1.0000
     4 O3P         27.1460     2.3610    11.3530 O.co2        1 5GP200  -1.0000
     5 O5'         26.7010     0.2850    10.0970 O.3          1 5GP200   0.0000
     6 C5'         25.4670     0.0260    10.7080 C.3          1 5GP200   0.0000
     7 C4'         25.2510    -1.4350    10.6700 C.3          1 5GP200   0.0000
     8 O4'         26.6370    -1.9160    10.5400 O.3          1 5GP200   0.0000
     9 C3'         24.7460    -2.0890    11.9000 C.3          1 5GP200   0.0000
    10 O3'         23.3300    -2.2460    11.8950 O.3          1 5GP200   0.0000
    11 C2'         25.4720    -3.4120    11.9070 C.3          1 5GP200   0.0000
    12 O2'         24.7580    -4.4260    11.1460 O.3          1 5GP200   0.0000
    13 C1'         26.8050    -3.0920    11.2770 C.3          1 5GP200   0.0000
    14 N9          28.0450    -2.8650    12.1240 N.pl3        1 5GP200   0.0000
    15 C8          29.2650    -2.4000    11.6980 C.2          1 5GP200   0.0000
    16 N7          30.2000    -2.3080    12.6020 N.2          1 5GP200   0.0000
    17 C5          29.5420    -2.7600    13.7560 C.2          1 5GP200   0.0000
    18 C6          30.0800    -2.8990    15.0760 C.2          1 5GP200   0.0000
    19 O6          31.2060    -2.6590    15.4560 O.2          1 5GP200   0.0000
    20 N1          29.1200    -3.3880    15.9900 N.pl3        1 5GP200   0.0000
    21 C2          27.8160    -3.6940    15.6520 C.2          1 5GP200   0.0000
    22 N2          27.0760    -4.1460    16.6960 N.pl3        1 5GP200   0.0000
    23 N3          27.2960    -3.5690    14.4040 N.2          1 5GP200   0.0000
    24 C4          28.2220    -3.0960    13.4980 C.2          1 5GP200   0.0000
    25 H5'1        24.7353     0.4924    10.2110 H            1 5GP200   0.0000
    26 H5'2        25.4817     0.3445    11.6558 H            1 5GP200   0.0000
    27 H4'         24.7044    -1.6963     9.8744 H            1 5GP200   0.0000
    28 H3'         25.0197    -1.5538    12.6991 H            1 5GP200   0.0000
    29 H5          23.0097    -2.3517    10.9536 H            1 5GP200   0.0000
    30 H2'         25.6054    -3.7228    12.8481 H            1 5GP200   0.0000
    31 H7          24.1253    -4.9116    11.7493 H            1 5GP200   0.0000
    32 H1'         27.0142    -3.8246    10.6293 H            1 5GP200   0.0000
    33 H9          29.4276    -2.1454    10.7447 H            1 5GP200   0.0000
    34 H10         29.4019    -3.5208    16.9402 H            1 5GP200   0.0000
    35 H11         26.1175    -4.3959    16.5584 H            1 5GP200   0.0000
    36 H12         27.4892    -4.2292    17.6028 H            1 5GP200   0.0000
@<TRIPOS>BOND
     1    1    2      ar
     2    1    3      ar
     3    1    4      ar
     4    1    5       1
     5    5    6       1
     6    6    7       1
     7    7    8       1
     8    7    9       1
     9    8   13       1
    10    9   10       1
    11    9   11       1
    12   11   12       1
    13   11   13       1
    14   13   14       1
    15   14   15       1
    16   14   24       1
    17   15   16       2
    18   16   17       1
    19   17   18       1
    20   17   24       2
    21   18   19       2
    22   18   20       1
    23   20   21       1
    24   21   22       1
    25   21   23       2
    26   23   24       1
    27   22   36       1
    28   22   35       1
    29    6   25       1
    30    6   26       1
    31    7   27       1
    32    9   28       1
    33   10   29       1
    34   11   30       1
    35   12   31       1
    36   13   32       1
    37   15   33       1
    38   20   34       1
@<TRIPOS>SUBSTRUCTURE
     1 5GP200      1 GROUP             4 A     5GP     0 **** 5GP A 200
