@<TRIPOS>MOLECULE
3pvu_QRW_1_ligand
   55    58     1     0     0
SMALL
NO_CHARGES


@<TRIPOS>ATOM
     1 C1          36.7270    -2.3330    50.3650 C.ar         1 QRW800   0.0000
     2 C2          35.3590    -2.2420    50.1020 C.ar         1 QRW800   0.0000
     3 C3          34.8060    -1.0030    49.7540 C.ar         1 QRW800   0.0000
     4 N4          35.5690     0.0890    49.6780 N.ar         1 QRW800   0.0000
     5 C5          36.8760     0.0320    49.9290 C.ar         1 QRW800   0.0000
     6 C6          37.4970    -1.1760    50.2760 C.ar         1 QRW800   0.0000
     7 C7          37.3250    -3.5380    50.7200 C.2          1 QRW800   0.0000
     8 N8          38.1870    -3.6900    51.7160 N.2          1 QRW800   0.0000
     9 N9          38.5540    -4.8680    51.7880 N.2          1 QRW800   0.0000
    10 C10         37.9490    -5.5900    50.8440 C.2          1 QRW800   0.0000
    11 N11         37.1820    -4.7470    50.1770 N.pl3        1 QRW800   0.0000
    12 C12         36.3210    -5.1190    49.0310 C.3          1 QRW800   0.0000
    13 C13         38.1090    -7.0940    50.5870 C.3          1 QRW800   0.0000
    14 N14         38.7850    -7.7560    51.7190 N.pl3        1 QRW800   0.0000
    15 C15         38.2130    -7.9730    52.9140 C.ar         1 QRW800   0.0000
    16 C16         36.9550    -7.4650    53.2630 C.ar         1 QRW800   0.0000
    17 C17         36.4160    -7.7290    54.5270 C.ar         1 QRW800   0.0000
    18 C18         37.1310    -8.4990    55.4500 C.ar         1 QRW800   0.0000
    19 C19         38.3850    -8.9970    55.1080 C.ar         1 QRW800   0.0000
    20 C20         38.9070    -8.7400    53.8410 C.ar         1 QRW800   0.0000
    21 C21         39.2040    -9.8510    56.0820 C.2          1 QRW800   0.0000
    22 O22         38.6400   -10.5760    56.9000 O.2          1 QRW800   0.0000
    23 N23         40.5360    -9.7530    55.9240 N.am         1 QRW800   0.0000
    24 C24         41.5340   -10.5430    56.6650 C.3          1 QRW800   0.0000
    25 C25         41.6900   -11.8770    55.9050 C.ar         1 QRW800   0.0000
    26 C26         42.6570   -12.2050    54.9270 C.ar         1 QRW800   0.0000
    27 C27         42.6280   -13.4770    54.3300 C.ar         1 QRW800   0.0000
    28 C28         41.6720   -14.4300    54.6760 C.ar         1 QRW800   0.0000
    29 C29         40.7170   -14.1120    55.6330 C.ar         1 QRW800   0.0000
    30 C30         40.7380   -12.8510    56.2280 C.ar         1 QRW800   0.0000
    31 C31         43.7680   -11.2220    54.4500 C.3          1 QRW800   0.0000
    32 F32         44.9030   -11.8890    54.1550 F            1 QRW800   0.0000
    33 F33         44.0460   -10.3020    55.3850 F            1 QRW800   0.0000
    34 F34         43.3300   -10.6230    53.3230 F            1 QRW800   0.0000
    35 H1          34.7789    -3.0543    50.1615 H            1 QRW800   0.0000
    36 H2          33.8273    -0.9360    49.5601 H            1 QRW800   0.0000
    37 H3          37.4242     0.8662    49.8688 H            1 QRW800   0.0000
    38 H4          38.4800    -1.2065    50.4572 H            1 QRW800   0.0000
    39 H5          36.4171    -6.0969    48.8455 H            1 QRW800   0.0000
    40 H6          35.3672    -4.9134    49.2501 H            1 QRW800   0.0000
    41 H7          36.5973    -4.5978    48.2235 H            1 QRW800   0.0000
    42 H8          38.6523    -7.2280    49.7582 H            1 QRW800   0.0000
    43 H9          37.2047    -7.5023    50.4623 H            1 QRW800   0.0000
    44 H10         39.7279    -8.0621    51.5880 H            1 QRW800   0.0000
    45 H11         36.4409    -6.9123    52.6071 H            1 QRW800   0.0000
    46 H12         35.5168    -7.3660    54.7711 H            1 QRW800   0.0000
    47 H13         36.7431    -8.6909    56.3515 H            1 QRW800   0.0000
    48 H14         39.8002    -9.1159    53.5943 H            1 QRW800   0.0000
    49 H15         40.8744    -9.0938    55.2525 H            1 QRW800   0.0000
    50 H16         41.2169   -10.7122    57.5982 H            1 QRW800   0.0000
    51 H17         42.4076   -10.0572    56.6928 H            1 QRW800   0.0000
    52 H18         43.3126   -13.7046    53.6375 H            1 QRW800   0.0000
    53 H19         41.6735   -15.3305    54.2412 H            1 QRW800   0.0000
    54 H20         40.0208   -14.7811    55.8930 H            1 QRW800   0.0000
    55 H21         40.0439   -12.6334    56.9142 H            1 QRW800   0.0000
@<TRIPOS>BOND
     1    1    2      ar
     2    1    6      ar
     3    1    7       1
     4    2    3      ar
     5    3    4      ar
     6    4    5      ar
     7    5    6      ar
     8    7    8       2
     9    7   11       1
    10    8    9       1
    11    9   10       2
    12   10   11       1
    13   10   13       1
    14   11   12       1
    15   13   14       1
    16   14   15       1
    17   15   16      ar
    18   15   20      ar
    19   16   17      ar
    20   17   18      ar
    21   18   19      ar
    22   19   20      ar
    23   19   21       1
    24   21   22       2
    25   21   23      am
    26   23   24       1
    27   24   25       1
    28   25   26      ar
    29   25   30      ar
    30   26   27      ar
    31   26   31       1
    32   27   28      ar
    33   28   29      ar
    34   29   30      ar
    35   31   32       1
    36   31   33       1
    37   31   34       1
    38    2   35       1
    39    3   36       1
    40    5   37       1
    41    6   38       1
    42   12   39       1
    43   12   40       1
    44   12   41       1
    45   13   42       1
    46   13   43       1
    47   14   44       1
    48   16   45       1
    49   17   46       1
    50   18   47       1
    51   20   48       1
    52   23   49       1
    53   24   50       1
    54   24   51       1
    55   27   52       1
    56   28   53       1
    57   29   54       1
    58   30   55       1
@<TRIPOS>SUBSTRUCTURE
     1 QRW800      1 GROUP             4 A     QRW     0 **** QRW A 800
