@<TRIPOS>MOLECULE
4fc7_NAP_3_ligand
   73    77     1     0     0
SMALL
NO_CHARGES


@<TRIPOS>ATOM
     1 PA          24.9960    26.0950     3.5090 P.3          1 NAP401   0.0000
     2 O1A         26.4860    26.3660     3.2330 O.co2        1 NAP401   0.0000
     3 O2A         24.0030    26.8260     2.6830 O.co2        1 NAP401  -1.0000
     4 O5B         24.6490    26.2570     5.0590 O.3          1 NAP401   0.0000
     5 C5B         25.7420    26.2380     5.9680 C.3          1 NAP401   0.0000
     6 C4B         25.4160    27.5050     6.7370 C.3          1 NAP401   0.0000
     7 O4B         26.2270    27.5100     7.9280 O.3          1 NAP401   0.0000
     8 C3B         25.8340    28.7100     5.8720 C.3          1 NAP401   0.0000
     9 O3B         24.7320    29.6100     5.7320 O.3          1 NAP401   0.0000
    10 C2B         26.9670    29.3860     6.6540 C.3          1 NAP401   0.0000
    11 O2B         26.9690    30.8360     6.6340 O.3          1 NAP401   0.0000
    12 C1B         26.7020    28.8380     8.0870 C.3          1 NAP401   0.0000
    13 N9A         27.9620    28.7000     8.8410 N.pl3        1 NAP401   0.0000
    14 C8A         29.0560    27.9690     8.5250 C.2          1 NAP401   0.0000
    15 N7A         29.9670    28.1150     9.5350 N.2          1 NAP401   0.0000
    16 C5A         29.4190    28.8720    10.4590 C.ar         1 NAP401   0.0000
    17 C6A         29.8630    29.3730    11.7590 C.ar         1 NAP401   0.0000
    18 N6A         31.1440    29.0300    12.1760 N.pl3        1 NAP401   0.0000
    19 N1A         29.0250    30.1410    12.4440 N.ar         1 NAP401   0.0000
    20 C2A         27.7880    30.4180    12.0200 C.ar         1 NAP401   0.0000
    21 N3A         27.3470    30.0010    10.8030 N.ar         1 NAP401   0.0000
    22 C4A         28.0960    29.2180    10.0380 C.ar         1 NAP401   0.0000
    23 O3          24.8450    24.5490     3.0280 O.3          1 NAP401   0.0000
    24 PN          23.5160    23.5390     3.1210 P.3          1 NAP401   0.0000
    25 O1N         24.0450    22.4900     2.2320 O.co2        1 NAP401   0.0000
    26 O2N         22.2190    24.2470     3.1100 O.co2        1 NAP401  -1.0000
    27 O5D         23.6320    22.9270     4.6000 O.3          1 NAP401   0.0000
    28 C5D         22.8000    23.3580     5.6860 C.3          1 NAP401   0.0000
    29 C4D         22.7280    22.1830     6.7400 C.3          1 NAP401   0.0000
    30 O4D         22.2340    20.9710     6.1320 O.3          1 NAP401   0.0000
    31 C3D         24.1040    21.8220     7.3400 C.3          1 NAP401   0.0000
    32 O3D         23.8870    21.5400     8.7570 O.3          1 NAP401   0.0000
    33 C2D         24.5270    20.6110     6.5830 C.3          1 NAP401   0.0000
    34 O2D         25.4190    19.8220     7.4100 O.3          1 NAP401   0.0000
    35 C1D         23.1630    19.9230     6.3780 C.3          1 NAP401   0.0000
    36 N1N         23.1000    18.9390     5.3020 N.ar         1 NAP401   1.0000
    37 C2N         23.0580    19.3280     4.0260 C.ar         1 NAP401   0.0000
    38 C3N         22.9800    18.3980     3.0080 C.ar         1 NAP401   0.0000
    39 C7N         22.8870    18.8420     1.5880 C.2          1 NAP401   0.0000
    40 O7N         22.6770    17.9810     0.6740 O.2          1 NAP401   0.0000
    41 N7N         23.0130    20.1900     1.3820 N.am         1 NAP401   0.0000
    42 C4N         22.9480    17.0300     3.3040 C.ar         1 NAP401   0.0000
    43 C5N         22.9950    16.6360     4.6510 C.ar         1 NAP401   0.0000
    44 C6N         23.0740    17.6310     5.6660 C.ar         1 NAP401   0.0000
    45 P2B         28.3010    31.7820     6.8820 P.3          1 NAP401   0.0000
    46 O1X         29.2180    31.3040     5.8550 O.co2        1 NAP401   0.0000
    47 O2X         27.6660    33.1790     6.7390 O.co2        1 NAP401  -1.0000
    48 O3X         28.5870    31.5060     8.3440 O.co2        1 NAP401  -1.0000
    49 H5B1        26.6232    26.2979     5.4991 H            1 NAP401   0.0000
    50 H5B2        25.7307    25.4279     6.5542 H            1 NAP401   0.0000
    51 H4B         24.4432    27.5466     6.9648 H            1 NAP401   0.0000
    52 H3B         26.1568    28.4057     4.9758 H            1 NAP401   0.0000
    53 H5          24.5014    29.7065     4.7638 H            1 NAP401   0.0000
    54 H2B         27.8482    29.0467     6.3248 H            1 NAP401   0.0000
    55 H1B         26.0420    29.4057     8.5791 H            1 NAP401   0.0000
    56 H8A         29.1772    27.4190     7.6987 H            1 NAP401   0.0000
    57 H6A1        31.4856    29.3525    13.0588 H            1 NAP401   0.0000
    58 H6A2        31.7239    28.4608    11.5932 H            1 NAP401   0.0000
    59 H2A         27.1742    30.9427    12.6098 H            1 NAP401   0.0000
    60 H5D1        21.8825    23.5680     5.3483 H            1 NAP401   0.0000
    61 H5D2        23.1929    24.1729     6.1121 H            1 NAP401   0.0000
    62 H4D         22.1110    22.4491     7.4806 H            1 NAP401   0.0000
    63 H3D         24.7572    22.5693     7.2177 H            1 NAP401   0.0000
    64 H16         23.9870    22.3840     9.2840 H            1 NAP401   0.0000
    65 H2D         24.9518    20.8525     5.7105 H            1 NAP401   0.0000
    66 H18         26.2226    20.3675     7.6481 H            1 NAP401   0.0000
    67 H1D         22.9076    19.4709     7.2326 H            1 NAP401   0.0000
    68 H2N         23.0833    20.3029     3.8048 H            1 NAP401   0.0000
    69 H7N1        22.9611    20.5611     0.4549 H            1 NAP401   0.0000
    70 H7N2        23.1569    20.8032     2.1587 H            1 NAP401   0.0000
    71 H4N         22.8930    16.3495     2.5734 H            1 NAP401   0.0000
    72 H5N         22.9732    15.6664     4.8947 H            1 NAP401   0.0000
    73 H6N         23.1098    17.3711     6.6310 H            1 NAP401   0.0000
@<TRIPOS>BOND
     1    1    2      ar
     2    1    3      ar
     3    1    4       1
     4    1   23       1
     5    4    5       1
     6    5    6       1
     7    6    7       1
     8    6    8       1
     9    7   12       1
    10    8    9       1
    11    8   10       1
    12   10   11       1
    13   10   12       1
    14   11   45       1
    15   12   13       1
    16   13   14       1
    17   13   22       1
    18   14   15       2
    19   15   16       1
    20   16   17      ar
    21   16   22      ar
    22   17   18       1
    23   17   19      ar
    24   19   20      ar
    25   20   21      ar
    26   21   22      ar
    27   23   24       1
    28   24   25      ar
    29   24   26      ar
    30   24   27       1
    31   27   28       1
    32   28   29       1
    33   29   30       1
    34   29   31       1
    35   30   35       1
    36   31   32       1
    37   31   33       1
    38   33   34       1
    39   33   35       1
    40   35   36       1
    41   36   37      ar
    42   36   44      ar
    43   37   38      ar
    44   38   39       1
    45   38   42      ar
    46   39   40       2
    47   39   41      am
    48   42   43      ar
    49   43   44      ar
    50   45   46      ar
    51   45   47      ar
    52   45   48      ar
    53   43   72       1
    54    5   49       1
    55    5   50       1
    56    6   51       1
    57    8   52       1
    58    9   53       1
    59   10   54       1
    60   12   55       1
    61   14   56       1
    62   18   57       1
    63   18   58       1
    64   20   59       1
    65   44   73       1
    66   28   60       1
    67   28   61       1
    68   29   62       1
    69   31   63       1
    70   32   64       1
    71   33   65       1
    72   34   66       1
    73   35   67       1
    74   37   68       1
    75   41   69       1
    76   41   70       1
    77   42   71       1
@<TRIPOS>SUBSTRUCTURE
     1 NAP401      1 GROUP             4 B     NAP     0 **** NAP B 401
