@<TRIPOS>MOLECULE
3q3c_NAD_1_ligand
   70    74     1     0     0
SMALL
NO_CHARGES


@<TRIPOS>ATOM
     1 PA          -1.1110    28.2330    -5.8780 P.3          1 NAD299   0.0000
     2 O1A          0.1190    27.4930    -5.4970 O.co2        1 NAD299   0.0000
     3 O2A         -1.3540    29.3210    -4.9020 O.co2        1 NAD299  -1.0000
     4 O5B         -2.4060    27.2760    -5.9130 O.3          1 NAD299   0.0000
     5 C5B         -2.4060    26.0260    -6.5620 C.3          1 NAD299   0.0000
     6 C4B         -3.4340    25.1370    -5.8750 C.3          1 NAD299   0.0000
     7 O4B         -3.5600    23.9350    -6.6050 O.3          1 NAD299   0.0000
     8 C3B         -3.0130    24.7550    -4.4580 C.3          1 NAD299   0.0000
     9 O3B         -3.9850    25.1600    -3.5120 O.3          1 NAD299   0.0000
    10 C2B         -2.8920    23.2410    -4.4790 C.3          1 NAD299   0.0000
    11 O2B         -3.4500    22.6350    -3.3350 O.3          1 NAD299   0.0000
    12 C1B         -3.6900    22.8480    -5.7060 C.3          1 NAD299   0.0000
    13 N9A         -3.2370    21.5650    -6.2870 N.pl3        1 NAD299   0.0000
    14 C8A         -1.9470    21.2040    -6.5910 C.2          1 NAD299   0.0000
    15 N7A         -1.9620    19.9540    -7.1070 N.2          1 NAD299   0.0000
    16 C5A         -3.2390    19.5070    -7.1330 C.ar         1 NAD299   0.0000
    17 C6A         -3.7960    18.3100    -7.5580 C.ar         1 NAD299   0.0000
    18 N6A         -3.1050    17.5530    -8.4080 N.pl3        1 NAD299   0.0000
    19 N1A         -5.1620    18.1380    -7.4620 N.ar         1 NAD299   0.0000
    20 C2A         -5.9600    19.1460    -6.9560 C.ar         1 NAD299   0.0000
    21 N3A         -5.3960    20.3320    -6.5320 N.ar         1 NAD299   0.0000
    22 C4A         -4.0540    20.5090    -6.6200 C.ar         1 NAD299   0.0000
    23 O3          -0.9420    28.7570    -7.3900 O.3          1 NAD299   0.0000
    24 PN          -1.6610    30.1180    -7.8470 P.3          1 NAD299   0.0000
    25 O1N         -0.9200    31.2420    -7.2130 O.co2        1 NAD299   0.0000
    26 O2N         -3.1330    29.9320    -7.6060 O.co2        1 NAD299  -1.0000
    27 O5D         -1.3300    30.2150    -9.4320 O.3          1 NAD299   0.0000
    28 C5D         -1.5830    29.1400   -10.3130 C.3          1 NAD299   0.0000
    29 C4D         -1.0750    29.4490   -11.7220 C.3          1 NAD299   0.0000
    30 O4D         -1.5060    30.7390   -12.1050 O.3          1 NAD299   0.0000
    31 C3D          0.4390    29.4250   -11.8440 C.3          1 NAD299   0.0000
    32 O3D          0.7690    28.6190   -12.9690 O.3          1 NAD299   0.0000
    33 C2D          0.8140    30.9070   -11.9600 C.3          1 NAD299   0.0000
    34 O2D          1.9630    31.2080   -12.7390 O.3          1 NAD299   0.0000
    35 C1D         -0.4370    31.5550   -12.5350 C.3          1 NAD299   0.0000
    36 N1N         -0.6470    32.9330   -12.0440 N.ar         1 NAD299   1.0000
    37 C2N         -0.3170    33.2500   -10.7520 C.ar         1 NAD299   0.0000
    38 C3N         -0.5060    34.5430   -10.2610 C.ar         1 NAD299   0.0000
    39 C7N         -0.3830    34.8220    -8.7790 C.2          1 NAD299   0.0000
    40 O7N         -0.1950    36.1500    -8.3500 O.2          1 NAD299   0.0000
    41 N7N         -0.4590    33.8340    -7.8840 N.am         1 NAD299   0.0000
    42 C4N         -1.0450    35.5160   -11.1110 C.ar         1 NAD299   0.0000
    43 C5N         -1.3850    35.1910   -12.4230 C.ar         1 NAD299   0.0000
    44 C6N         -1.1820    33.8850   -12.8760 C.ar         1 NAD299   0.0000
    45 H5B1        -1.4993    25.6095    -6.4957 H            1 NAD299   0.0000
    46 H5B2        -2.6491    26.1439    -7.5248 H            1 NAD299   0.0000
    47 H4B         -4.3168    25.6059    -5.8471 H            1 NAD299   0.0000
    48 H3B         -2.1285    25.1672    -4.2396 H            1 NAD299   0.0000
    49 H5          -4.8564    24.7149    -3.7180 H            1 NAD299   0.0000
    50 H2B         -1.9353    22.9699    -4.5847 H            1 NAD299   0.0000
    51 H7          -4.4217    22.8639    -3.2770 H            1 NAD299   0.0000
    52 H1B         -4.6520    22.7601    -5.4473 H            1 NAD299   0.0000
    53 H8A         -1.1340    21.7699    -6.4539 H            1 NAD299   0.0000
    54 H6A1        -3.4859    16.6857    -8.7285 H            1 NAD299   0.0000
    55 H6A2        -2.2051    17.8518    -8.7258 H            1 NAD299   0.0000
    56 H2A         -6.9497    19.0157    -6.8968 H            1 NAD299   0.0000
    57 H5D1        -2.5684    28.9739   -10.3506 H            1 NAD299   0.0000
    58 H5D2        -1.1199    28.3222    -9.9713 H            1 NAD299   0.0000
    59 H4D         -1.4598    28.7792   -12.3571 H            1 NAD299   0.0000
    60 H3D          0.8416    29.0354   -11.0157 H            1 NAD299   0.0000
    61 H17          0.4163    27.6935   -12.8309 H            1 NAD299   0.0000
    62 H2D          0.9576    31.2668   -11.0381 H            1 NAD299   0.0000
    63 H19          2.7736    31.2019   -12.1535 H            1 NAD299   0.0000
    64 H1D         -0.3906    31.5544   -13.5339 H            1 NAD299   0.0000
    65 H2N          0.0642    32.5457   -10.1532 H            1 NAD299   0.0000
    66 H7N1        -0.3757    34.0359    -6.9081 H            1 NAD299   0.0000
    67 H7N2        -0.5993    32.8922    -8.1896 H            1 NAD299   0.0000
    68 H4N         -1.1866    36.4474   -10.7757 H            1 NAD299   0.0000
    69 H5N         -1.7696    35.8841   -13.0327 H            1 NAD299   0.0000
    70 H6N         -1.4285    33.6417   -13.8141 H            1 NAD299   0.0000
@<TRIPOS>BOND
     1    1    2      ar
     2    1    3      ar
     3    1    4       1
     4    1   23       1
     5    4    5       1
     6    5    6       1
     7    6    7       1
     8    6    8       1
     9    7   12       1
    10    8    9       1
    11    8   10       1
    12   10   11       1
    13   10   12       1
    14   12   13       1
    15   13   14       1
    16   13   22       1
    17   14   15       2
    18   15   16       1
    19   16   17      ar
    20   16   22      ar
    21   17   18       1
    22   17   19      ar
    23   19   20      ar
    24   20   21      ar
    25   21   22      ar
    26   23   24       1
    27   24   25      ar
    28   24   26      ar
    29   24   27       1
    30   27   28       1
    31   28   29       1
    32   29   30       1
    33   29   31       1
    34   30   35       1
    35   31   32       1
    36   31   33       1
    37   33   34       1
    38   33   35       1
    39   35   36       1
    40   36   37      ar
    41   36   44      ar
    42   37   38      ar
    43   38   39       1
    44   38   42      ar
    45   39   40       2
    46   39   41      am
    47   42   43      ar
    48   43   44      ar
    49   44   70       1
    50    5   45       1
    51    5   46       1
    52    6   47       1
    53    8   48       1
    54    9   49       1
    55   10   50       1
    56   11   51       1
    57   12   52       1
    58   14   53       1
    59   18   54       1
    60   18   55       1
    61   20   56       1
    62   43   69       1
    63   28   57       1
    64   28   58       1
    65   29   59       1
    66   31   60       1
    67   32   61       1
    68   33   62       1
    69   34   63       1
    70   35   64       1
    71   37   65       1
    72   41   66       1
    73   41   67       1
    74   42   68       1
@<TRIPOS>SUBSTRUCTURE
     1 NAD299      1 GROUP             4 A     NAD     0 **** NAD A 299
