@<TRIPOS>MOLECULE
3vax_PLP_1_ligand
   26    26     1     0     0
SMALL
NO_CHARGES


@<TRIPOS>ATOM
     1 N1          10.1330    -9.3310    27.1250 N.ar         1 PLP400   1.0000
     2 C2           9.3770   -10.4100    26.7270 C.ar         1 PLP400   0.0000
     3 C2A          8.6770   -11.2370    27.7670 C.3          1 PLP400   0.0000
     4 C3           9.2750   -10.7080    25.3740 C.ar         1 PLP400   0.0000
     5 O3           8.5210   -11.7690    24.9440 O.3          1 PLP400   0.0000
     6 C4           9.9370    -9.9230    24.4290 C.ar         1 PLP400   0.0000
     7 C4A         10.0890   -10.4500    23.0320 C.3          1 PLP400   0.0000
     8 C5          10.7060    -8.8390    24.8440 C.ar         1 PLP400   0.0000
     9 C6          10.7990    -8.5550    26.1990 C.ar         1 PLP400   0.0000
    10 C5A         11.4370    -7.9770    23.8380 C.3          1 PLP400   0.0000
    11 O4P         10.4690    -7.2080    23.1580 O.3          1 PLP400   0.0000
    12 P           10.8690    -6.1970    21.9620 P.3          1 PLP400   0.0000
    13 O1P          9.7090    -5.2530    21.7160 O.co2        1 PLP400   0.0000
    14 O2P         12.1100    -5.4480    22.4060 O.co2        1 PLP400  -1.0000
    15 O3P         11.1830    -6.9960    20.7260 O.co2        1 PLP400  -1.0000
    16 H2A1         8.1738   -11.9772    27.3211 H            1 PLP400   0.0000
    17 H2A2         9.3521   -11.6240    28.3951 H            1 PLP400   0.0000
    18 H2A3         8.0389   -10.6605    28.2774 H            1 PLP400   0.0000
    19 H4           8.0361   -12.3392    25.6072 H            1 PLP400   0.0000
    20 H4A1        10.5805    -9.7806    22.4749 H            1 PLP400   0.0000
    21 H4A2        10.6029   -11.3076    23.0533 H            1 PLP400   0.0000
    22 H4A3         9.1849   -10.6129    22.6370 H            1 PLP400   0.0000
    23 H8          11.3532    -7.7816    26.5068 H            1 PLP400   0.0000
    24 H5A1        11.9321    -8.5546    23.1890 H            1 PLP400   0.0000
    25 H5A2        12.0824    -7.3754    24.3086 H            1 PLP400   0.0000
    26 H11         10.2004    -9.1068    28.0972 H            1 PLP400   0.0000
@<TRIPOS>BOND
     1    1    2      ar
     2    1    9      ar
     3    2    3       1
     4    2    4      ar
     5    4    5       1
     6    4    6      ar
     7    6    7       1
     8    6    8      ar
     9    8    9      ar
    10    8   10       1
    11   10   11       1
    12   11   12       1
    13   12   13      ar
    14   12   14      ar
    15   12   15      ar
    16    3   16       1
    17    3   17       1
    18    3   18       1
    19    5   19       1
    20    7   20       1
    21    7   21       1
    22    7   22       1
    23    9   23       1
    24   10   24       1
    25   10   25       1
    26    1   26       1
@<TRIPOS>SUBSTRUCTURE
     1 PLP400      1 GROUP             4 A     PLP     0 **** PLP A 400
