@<TRIPOS>MOLECULE
2ggq_TTP_1_ligand
   42    43     1     0     0
SMALL
NO_CHARGES


@<TRIPOS>ATOM
     1 PA          -1.6360    39.4610    11.1270 P.3          1 TTP500   0.0000
     2 O1A         -3.0160    39.4440    11.7810 O.co2        1 TTP500   0.0000
     3 O2A         -1.7280    40.0090     9.7000 O.co2        1 TTP500  -1.0000
     4 O3A         -1.0160    37.9330    11.0550 O.3          1 TTP500   0.0000
     5 PB           0.4580    37.6340    11.6380 P.3          1 TTP500   0.0000
     6 O1B          1.3750    36.7620    10.8420 O.co2        1 TTP500   0.0000
     7 O2B          1.2310    38.9240    11.7590 O.co2        1 TTP500  -1.0000
     8 O3B          0.1880    37.1950    13.1500 O.3          1 TTP500   0.0000
     9 PG          -0.0600    35.7450    13.7450 P.3          1 TTP500   0.0000
    10 O1G         -0.1440    34.7250    12.6170 O.co2        1 TTP500   0.0000
    11 O2G          1.0390    35.3830    14.7170 O.co2        1 TTP500  -1.0000
    12 O3G         -1.3440    35.9100    14.5270 O.co2        1 TTP500  -1.0000
    13 O5'         -0.6260    40.2920    12.1040 O.3          1 TTP500   0.0000
    14 C5'         -0.6950    40.1050    13.5390 C.3          1 TTP500   0.0000
    15 C4'          0.5830    40.2900    14.3870 C.3          1 TTP500   0.0000
    16 O4'          1.8120    40.6500    13.7190 O.3          1 TTP500   0.0000
    17 C3'          0.3490    41.4670    15.2960 C.3          1 TTP500   0.0000
    18 O3'          1.0850    41.2170    16.5070 O.3          1 TTP500   0.0000
    19 C2'          0.9330    42.6710    14.5410 C.3          1 TTP500   0.0000
    20 C1'          2.1840    42.0470    13.9410 C.3          1 TTP500   0.0000
    21 N1           2.7860    42.6550    12.7140 N.pl3        1 TTP500   0.0000
    22 C2           4.0370    43.3690    12.8030 C.2          1 TTP500   0.0000
    23 O2           4.6310    43.5610    13.8950 O.2          1 TTP500   0.0000
    24 N3           4.6320    43.8680    11.7140 N.pl3        1 TTP500   0.0000
    25 C4           4.0820    43.7100    10.5110 C.2          1 TTP500   0.0000
    26 O4           4.6790    44.1810     9.5270 O.2          1 TTP500   0.0000
    27 C5           2.8020    42.9890    10.3650 C.2          1 TTP500   0.0000
    28 C5M          2.1660    42.8040     9.0060 C.3          1 TTP500   0.0000
    29 C6           2.1990    42.4780    11.5160 C.2          1 TTP500   0.0000
    30 H5'1        -1.0172    39.1715    13.6965 H            1 TTP500   0.0000
    31 H5'2        -1.3719    40.7543    13.8857 H            1 TTP500   0.0000
    32 H4'          0.7347    39.4705    14.9396 H            1 TTP500   0.0000
    33 H3'         -0.6252    41.5934    15.4828 H            1 TTP500   0.0000
    34 H5           0.6188    41.6534    17.2765 H            1 TTP500   0.0000
    35 H2'1         1.1573    43.4220    15.1620 H            1 TTP500   0.0000
    36 H2'2         0.3088    42.9997    13.8322 H            1 TTP500   0.0000
    37 H1'          2.8882    42.0559    14.6510 H            1 TTP500   0.0000
    38 H9           5.4961    44.3633    11.8035 H            1 TTP500   0.0000
    39 H5M1         1.3105    42.2957     9.1047 H            1 TTP500   0.0000
    40 H5M2         1.9772    43.6989     8.6017 H            1 TTP500   0.0000
    41 H5M3         2.7896    42.2950     8.4126 H            1 TTP500   0.0000
    42 H13          1.3333    41.9818    11.4503 H            1 TTP500   0.0000
@<TRIPOS>BOND
     1    1    2      ar
     2    1    3      ar
     3    1    4       1
     4    1   13       1
     5    4    5       1
     6    5    6      ar
     7    5    7      ar
     8    5    8       1
     9    8    9       1
    10    9   10      ar
    11    9   11      ar
    12    9   12      ar
    13   13   14       1
    14   14   15       1
    15   15   16       1
    16   15   17       1
    17   16   20       1
    18   17   18       1
    19   17   19       1
    20   19   20       1
    21   20   21       1
    22   21   22       1
    23   21   29       1
    24   22   23       2
    25   22   24       1
    26   24   25       1
    27   25   26       2
    28   25   27       1
    29   27   28       1
    30   27   29       2
    31   29   42       1
    32   28   41       1
    33   28   40       1
    34   28   39       1
    35   14   30       1
    36   14   31       1
    37   15   32       1
    38   17   33       1
    39   18   34       1
    40   19   35       1
    41   19   36       1
    42   20   37       1
    43   24   38       1
@<TRIPOS>SUBSTRUCTURE
     1 TTP500      1 GROUP             4 A     TTP     0 **** TTP A 500
