@<TRIPOS>MOLECULE
3uib_SB2_1_ligand
   43    46     1     0     0
SMALL
NO_CHARGES


@<TRIPOS>ATOM
     1 O2           1.3670    34.6210    43.5590 O.2          1 SB2362   0.0000
     2 C1          -0.6580    32.6530    42.6730 C.3          1 SB2362   0.0000
     3 S1           0.4750    33.9690    42.1390 S.o          1 SB2362   0.0000
     4 CA1          3.1340    31.0370    41.3110 C.ar         1 SB2362   0.0000
     5 CA2          2.1080    31.7740    41.9020 C.ar         1 SB2362   0.0000
     6 CA3          1.7720    33.0310    41.3960 C.ar         1 SB2362   0.0000
     7 CA4          2.4680    33.5480    40.2970 C.ar         1 SB2362   0.0000
     8 CA5          3.4960    32.8100    39.7050 C.ar         1 SB2362   0.0000
     9 CA6          3.8340    31.5520    40.2160 C.ar         1 SB2362   0.0000
    10 NB1          8.8020    30.9710    34.7200 N.ar         1 SB2362   0.0000
    11 CB2          8.3880    29.7240    35.0050 C.ar         1 SB2362   0.0000
    12 CB3          7.6170    29.4700    36.1420 C.ar         1 SB2362   0.0000
    13 CB4          7.2760    30.5230    36.9910 C.ar         1 SB2362   0.0000
    14 CB5          7.7180    31.8100    36.6740 C.ar         1 SB2362   0.0000
    15 CB6          8.4870    32.0070    35.5210 C.ar         1 SB2362   0.0000
    16 NC1          5.5350    31.1900    38.5230 N.2          1 SB2362   0.0000
    17 CC2          4.9200    30.7160    39.6250 C.2          1 SB2362   0.0000
    18 NC3          5.3860    29.5130    40.0310 N.pl3        1 SB2362   0.0000
    19 CC4          6.3680    29.1490    39.1880 C.2          1 SB2362   0.0000
    20 CC5          6.4470    30.2600    38.2060 C.2          1 SB2362   0.0000
    21 CD1          8.5170    27.8320    39.0090 C.ar         1 SB2362   0.0000
    22 CD2          9.1870    26.6050    39.0850 C.ar         1 SB2362   0.0000
    23 CD3          8.4830    25.4370    39.4090 C.ar         1 SB2362   0.0000
    24 CD4          7.1140    25.4900    39.6680 C.ar         1 SB2362   0.0000
    25 CD5          6.4470    26.7110    39.5900 C.ar         1 SB2362   0.0000
    26 CD6          7.1420    27.8780    39.2600 C.ar         1 SB2362   0.0000
    27 FD3          9.1160    24.2560    39.4810 F            1 SB2362   0.0000
    28 H1          -1.1505    32.2949    41.8797 H            1 SB2362   0.0000
    29 H2          -0.1348    31.9161    43.1010 H            1 SB2362   0.0000
    30 H3          -1.3123    33.0236    43.3322 H            1 SB2362   0.0000
    31 HA1          3.3702    30.1351    41.6726 H            1 SB2362   0.0000
    32 HA2          1.6134    31.4023    42.6876 H            1 SB2362   0.0000
    33 HA4          2.2286    34.4487    39.9344 H            1 SB2362   0.0000
    34 HA5          3.9892    33.1800    38.9177 H            1 SB2362   0.0000
    35 HB2          8.6347    28.9699    34.3963 H            1 SB2362   0.0000
    36 HB3          7.3117    28.5398    36.3458 H            1 SB2362   0.0000
    37 HB5          7.4872    32.5829    37.2651 H            1 SB2362   0.0000
    38 HB6          8.8057    32.9262    35.2897 H            1 SB2362   0.0000
    39 HD1          9.0165    28.6668    38.7776 H            1 SB2362   0.0000
    40 HD2         10.1702    26.5618    38.9077 H            1 SB2362   0.0000
    41 HD4          6.6143    24.6577    39.9080 H            1 SB2362   0.0000
    42 HD5          5.4645    26.7526    39.7713 H            1 SB2362   0.0000
    43 HC3          5.0589    28.9885    40.8170 H            1 SB2362   0.0000
@<TRIPOS>BOND
     1    1    3       2
     2    2    3       1
     3    3    6       1
     4    4    5      ar
     5    4    9      ar
     6    5    6      ar
     7    6    7      ar
     8    7    8      ar
     9    8    9      ar
    10    9   17       1
    11   10   11      ar
    12   10   15      ar
    13   11   12      ar
    14   12   13      ar
    15   13   14      ar
    16   13   20       1
    17   14   15      ar
    18   16   17       2
    19   16   20       1
    20   17   18       1
    21   18   19       1
    22   19   20       2
    23   19   26       1
    24   21   22      ar
    25   21   26      ar
    26   22   23      ar
    27   23   24      ar
    28   23   27       1
    29   24   25      ar
    30   25   26      ar
    31    2   28       1
    32    2   29       1
    33    2   30       1
    34    4   31       1
    35    5   32       1
    36    7   33       1
    37    8   34       1
    38   11   35       1
    39   12   36       1
    40   14   37       1
    41   15   38       1
    42   25   42       1
    43   21   39       1
    44   22   40       1
    45   24   41       1
    46   18   43       1
@<TRIPOS>SUBSTRUCTURE
     1 SB2362      1 GROUP             4 A     SB2     0 **** SB2 A 362
