@<TRIPOS>MOLECULE
2y7p_SAL_1_ligand
   15    15     1     0     0
SMALL
NO_CHARGES


@<TRIPOS>ATOM
     1 C1'         14.8160    48.6310     3.5540 C.2          1 SAL1000   0.0000
     2 O1'         15.5390    49.3720     2.8170 O.co2        1 SAL1000   0.0000
     3 O2'         14.9820    48.6050     4.7950 O.co2        1 SAL1000  -1.0000
     4 C1          13.7830    47.7510     2.9810 C.ar         1 SAL1000   0.0000
     5 C2          12.9860    46.8930     3.8750 C.ar         1 SAL1000   0.0000
     6 C3          12.0430    46.0320     3.3440 C.ar         1 SAL1000   0.0000
     7 C4          11.8180    45.9740     1.9480 C.ar         1 SAL1000   0.0000
     8 C5          12.5750    46.7800     1.1220 C.ar         1 SAL1000   0.0000
     9 C6          13.5620    47.6770     1.5970 C.ar         1 SAL1000   0.0000
    10 O2          13.1930    46.9800     5.2290 O.3          1 SAL1000   0.0000
    11 H1          11.5133    45.4429     3.9543 H            1 SAL1000   0.0000
    12 H2          11.1248    45.3616     1.5679 H            1 SAL1000   0.0000
    13 H3          12.4180    46.7276     0.1358 H            1 SAL1000   0.0000
    14 H4          14.0882    48.2433     0.9627 H            1 SAL1000   0.0000
    15 H5          13.8740    47.6167     5.5908 H            1 SAL1000   0.0000
@<TRIPOS>BOND
     1    1    2      ar
     2    1    3      ar
     3    1    4       1
     4    4    5      ar
     5    4    9      ar
     6    5    6      ar
     7    5   10       1
     8    6    7      ar
     9    7    8      ar
    10    8    9      ar
    11   10   15       1
    12    6   11       1
    13    7   12       1
    14    8   13       1
    15    9   14       1
@<TRIPOS>SUBSTRUCTURE
     1 SAL1000     1 GROUP             4 A     SAL     0 **** SAL A1000
