@<TRIPOS>MOLECULE
1jom_FFO_1_ligand
   53    55     1     0     0
SMALL
NO_CHARGES


@<TRIPOS>ATOM
     1 N1           6.1200    35.9790    20.2000 N.2          1 FFO161   0.0000
     2 C2           5.8050    34.9980    21.0580 C.2          1 FFO161   0.0000
     3 NA2          5.1470    33.9490    20.7780 N.pl3        1 FFO161   0.0000
     4 N3           6.2180    35.1020    22.4030 N.pl3        1 FFO161   0.0000
     5 C4           6.9360    36.1760    22.8710 C.2          1 FFO161   0.0000
     6 O4           7.2830    36.2550    24.0660 O.2          1 FFO161   0.0000
     7 C4A          7.2970    37.2340    21.8880 C.2          1 FFO161   0.0000
     8 N5           7.9580    38.3790    22.2930 N.am         1 FFO161   0.0000
     9 C6           8.6200    38.9640    21.2570 C.3          1 FFO161   0.0000
    10 C7           7.7990    39.0660    20.1010 C.2          1 FFO161   0.0000
    11 N8           7.2020    37.9890    19.6290 N.2          1 FFO161   0.0000
    12 C8A          6.8810    37.0970    20.6060 C.2          1 FFO161   0.0000
    13 C9           9.8070    38.1350    20.8810 C.3          1 FFO161   0.0000
    14 N10         10.6740    38.1110    22.0900 N.pl3        1 FFO161   0.0000
    15 C11         13.0880    34.8270    23.0540 C.ar         1 FFO161   0.0000
    16 C12         13.0900    35.9710    23.8510 C.ar         1 FFO161   0.0000
    17 C13         12.2780    37.0230    23.4720 C.ar         1 FFO161   0.0000
    18 C14         11.4430    36.9710    22.3090 C.ar         1 FFO161   0.0000
    19 C15         11.4250    35.8770    21.5510 C.ar         1 FFO161   0.0000
    20 C16         12.2730    34.8180    21.9400 C.ar         1 FFO161   0.0000
    21 C           13.8960    33.6200    23.2820 C.2          1 FFO161   0.0000
    22 O           14.7830    33.5750    24.1310 O.2          1 FFO161   0.0000
    23 N           13.6870    32.5130    22.5860 N.am         1 FFO161   0.0000
    24 CA          14.6450    31.3250    22.5520 C.3          1 FFO161   0.0000
    25 CB          14.0210    30.0410    23.1810 C.3          1 FFO161   0.0000
    26 CG          15.0410    29.2310    24.1300 C.3          1 FFO161   0.0000
    27 CD          14.5050    29.5100    25.5460 C.2          1 FFO161   0.0000
    28 OE1         13.3730    28.9680    25.6640 O.co2        1 FFO161   0.0000
    29 OE2         15.0950    30.2320    26.3810 O.co2        1 FFO161  -1.0000
    30 CT          14.7680    30.9650    21.0980 C.2          1 FFO161   0.0000
    31 O1          13.8620    31.3580    20.3660 O.co2        1 FFO161   0.0000
    32 O2          15.7560    30.3660    20.6290 O.co2        1 FFO161  -1.0000
    33 C5A          7.6080    39.2740    23.1990 C.2          1 FFO161   0.0000
    34 O5B          6.6850    38.9810    23.9790 O.2          1 FFO161   0.0000
    35 HA21         4.9609    33.2709    21.4890 H            1 FFO161   0.0000
    36 HA22         4.8148    33.8009    19.8465 H            1 FFO161   0.0000
    37 H3           8.9247    39.8765    21.5300 H            1 FFO161   0.0000
    38 H4           7.6749    39.9491    19.6485 H            1 FFO161   0.0000
    39 H5          10.2925    38.5488    20.1109 H            1 FFO161   0.0000
    40 H6           9.5226    37.2080    20.6364 H            1 FFO161   0.0000
    41 H7          10.7034    38.8853    22.7222 H            1 FFO161   0.0000
    42 H8          13.6605    36.0284    24.6703 H            1 FFO161   0.0000
    43 H9          12.2731    37.8522    24.0309 H            1 FFO161   0.0000
    44 H10         10.8384    35.8087    20.7440 H            1 FFO161   0.0000
    45 H11         12.2842    33.9996    21.3654 H            1 FFO161   0.0000
    46 H12         12.8467    32.4512    22.0475 H            1 FFO161   0.0000
    47 HA          15.5312    31.5476    22.9583 H            1 FFO161   0.0000
    48 HB1         13.7285    29.4356    22.4407 H            1 FFO161   0.0000
    49 HB2         13.2265    30.3092    23.7259 H            1 FFO161   0.0000
    50 HG1         15.9749    29.5733    24.0266 H            1 FFO161   0.0000
    51 HG2         15.0201    28.2524    23.9255 H            1 FFO161   0.0000
    52 H5A          8.0704    40.1588    23.2559 H            1 FFO161   0.0000
    53 H19          5.9796    34.3677    23.0386 H            1 FFO161   0.0000
@<TRIPOS>BOND
     1    1    2       2
     2    1   12       1
     3    2    3       1
     4    2    4       1
     5    4    5       1
     6    5    6       2
     7    5    7       1
     8    7    8       1
     9    7   12       2
    10    8    9       1
    11    8   33      am
    12    9   10       1
    13    9   13       1
    14   10   11       2
    15   11   12       1
    16   13   14       1
    17   14   18       1
    18   15   16      ar
    19   15   20      ar
    20   15   21       1
    21   16   17      ar
    22   17   18      ar
    23   18   19      ar
    24   19   20      ar
    25   21   22       2
    26   21   23      am
    27   23   24       1
    28   24   25       1
    29   24   30       1
    30   25   26       1
    31   26   27       1
    32   27   28      ar
    33   27   29      ar
    34   30   31      ar
    35   30   32      ar
    36   33   34       2
    37   33   52       1
    38    3   35       1
    39    3   36       1
    40    9   37       1
    41   10   38       1
    42   13   39       1
    43   13   40       1
    44   14   41       1
    45   16   42       1
    46   17   43       1
    47   19   44       1
    48   20   45       1
    49   23   46       1
    50   24   47       1
    51   25   48       1
    52   25   49       1
    53   26   50       1
    54   26   51       1
    55    4   53       1
@<TRIPOS>SUBSTRUCTURE
     1 FFO161      1 GROUP             4 A     FFO     0 **** FFO A 161
