@<TRIPOS>MOLECULE
3iv6_SAM_2_ligand
   50    52     1     0     0
SMALL
NO_CHARGES


@<TRIPOS>ATOM
     1 N           39.4230    68.5330   -29.2580 N.4          1 SAM301   1.0000
     2 CA          40.8500    68.4700   -29.6000 C.3          1 SAM301   0.0000
     3 C           41.6520    67.3460   -28.9010 C.2          1 SAM301   0.0000
     4 O           41.7150    66.2010   -29.3600 O.co2        1 SAM301   0.0000
     5 OXT         42.2800    67.5430   -27.8620 O.co2        1 SAM301  -1.0000
     6 CB          41.5240    69.8440   -29.4400 C.3          1 SAM301   0.0000
     7 CG          40.6560    71.0230   -28.9720 C.3          1 SAM301   0.0000
     8 SD          41.5780    72.5940   -28.9450 S.3          1 SAM301   1.0000
     9 CE          43.1910    72.0320   -29.5690 C.3          1 SAM301   0.0000
    10 C5'         41.7390    72.9250   -27.1600 C.3          1 SAM301   0.0000
    11 C4'         43.1440    72.9890   -26.5760 C.3          1 SAM301   0.0000
    12 O4'         43.8970    74.0140   -27.2160 O.3          1 SAM301   0.0000
    13 C3'         43.0740    73.2950   -25.0800 C.3          1 SAM301   0.0000
    14 O3'         44.1020    72.6260   -24.3930 O.3          1 SAM301   0.0000
    15 C2'         43.3790    74.7720   -25.0090 C.3          1 SAM301   0.0000
    16 O2'         44.0640    75.0670   -23.8080 O.3          1 SAM301   0.0000
    17 C1'         44.2100    75.0380   -26.2950 C.3          1 SAM301   0.0000
    18 N9          43.9500    76.3820   -26.8720 N.pl3        1 SAM301   0.0000
    19 C8          42.7100    76.9260   -27.1700 C.2          1 SAM301   0.0000
    20 N7          42.9350    78.1570   -27.6770 N.2          1 SAM301   0.0000
    21 C5          44.2650    78.4120   -27.7010 C.ar         1 SAM301   0.0000
    22 C6          44.9890    79.5100   -28.1010 C.ar         1 SAM301   0.0000
    23 N6          44.3840    80.6050   -28.5600 N.pl3        1 SAM301   0.0000
    24 N1          46.3520    79.4820   -28.0150 N.ar         1 SAM301   0.0000
    25 C2          46.9740    78.3690   -27.5230 C.ar         1 SAM301   0.0000
    26 N3          46.2450    77.2750   -27.1050 N.ar         1 SAM301   0.0000
    27 C4          44.9110    77.3090   -27.1950 C.ar         1 SAM301   0.0000
    28 H1          39.2959    69.1314   -28.4669 H            1 SAM301   0.0000
    29 H2          38.9095    68.8952   -30.0359 H            1 SAM301   0.0000
    30 HA          40.8861    68.2619   -30.5774 H            1 SAM301   0.0000
    31 HB1         41.9083    70.0921   -30.3293 H            1 SAM301   0.0000
    32 HB2         42.2635    69.7369   -28.7755 H            1 SAM301   0.0000
    33 HG1         40.3225    70.8302   -28.0492 H            1 SAM301   0.0000
    34 HG2         39.8790    71.1170   -29.5944 H            1 SAM301   0.0000
    35 HE1         43.8208    72.8076   -29.6109 H            1 SAM301   0.0000
    36 HE2         43.5613    71.3347   -28.9553 H            1 SAM301   0.0000
    37 HE3         43.0779    71.6447   -30.4840 H            1 SAM301   0.0000
    38 H5'1        41.2472    72.2009   -26.6764 H            1 SAM301   0.0000
    39 H5'2        41.2998    73.8049   -26.9786 H            1 SAM301   0.0000
    40 H4'         43.5995    72.1094   -26.7128 H            1 SAM301   0.0000
    41 H3'         42.1739    73.0830   -24.6994 H            1 SAM301   0.0000
    42 H15         44.9129    73.2100   -24.3555 H            1 SAM301   0.0000
    43 H2'         42.5264    75.2932   -25.0462 H            1 SAM301   0.0000
    44 H17         45.0494    74.9872   -23.9581 H            1 SAM301   0.0000
    45 H1'         45.1811    74.9731   -26.0652 H            1 SAM301   0.0000
    46 H19         41.8200    76.4904   -27.0353 H            1 SAM301   0.0000
    47 H20         44.9278    81.3939   -28.8463 H            1 SAM301   0.0000
    48 H21         43.3862    80.6378   -28.6181 H            1 SAM301   0.0000
    49 H22         47.9721    78.3473   -27.4652 H            1 SAM301   0.0000
    50 H23         39.0920    67.6153   -29.0383 H            1 SAM301   0.0000
@<TRIPOS>BOND
     1    1    2       1
     2    2    3       1
     3    2    6       1
     4    3    4      ar
     5    3    5      ar
     6    6    7       1
     7    7    8       1
     8    8    9       1
     9    8   10       1
    10   10   11       1
    11   11   12       1
    12   11   13       1
    13   12   17       1
    14   13   14       1
    15   13   15       1
    16   15   16       1
    17   15   17       1
    18   17   18       1
    19   18   19       1
    20   18   27       1
    21   19   20       2
    22   20   21       1
    23   21   22      ar
    24   21   27      ar
    25   22   23       1
    26   22   24      ar
    27   24   25      ar
    28   25   26      ar
    29   26   27      ar
    30    1   28       1
    31    1   29       1
    32    2   30       1
    33    1   50       1
    34    6   31       1
    35    6   32       1
    36    7   33       1
    37    7   34       1
    38    9   35       1
    39    9   36       1
    40    9   37       1
    41   10   38       1
    42   10   39       1
    43   11   40       1
    44   13   41       1
    45   14   42       1
    46   15   43       1
    47   16   44       1
    48   17   45       1
    49   19   46       1
    50   23   47       1
    51   23   48       1
    52   25   49       1
@<TRIPOS>SUBSTRUCTURE
     1 SAM301      1 GROUP             4 B     SAM     0 **** SAM B 301
