@<TRIPOS>MOLECULE
3ea5_GDP_2_ligand
   40    42     1     0     0
SMALL
NO_CHARGES


@<TRIPOS>ATOM
     1 PB         -17.9610    -3.8440    15.8350 P.3          1 GDP220   0.0000
     2 O1B        -17.7200    -2.3780    16.0190 O.co2        1 GDP220   0.0000
     3 O2B        -16.7890    -4.5190    16.4340 O.co2        1 GDP220  -1.0000
     4 O3B        -19.2350    -4.2530    16.5280 O.co2        1 GDP220  -1.0000
     5 O3A        -18.0280    -4.2220    14.2600 O.3          1 GDP220   0.0000
     6 PA         -19.3490    -4.8840    13.6480 P.3          1 GDP220   0.0000
     7 O1A        -19.4440    -6.2630    14.2420 O.co2        1 GDP220   0.0000
     8 O2A        -20.5470    -4.0300    13.9550 O.co2        1 GDP220  -1.0000
     9 O5'        -19.1760    -4.8730    12.0750 O.3          1 GDP220   0.0000
    10 C5'        -17.9110    -5.1370    11.5040 C.3          1 GDP220   0.0000
    11 C4'        -18.0210    -5.2330     9.9880 C.3          1 GDP220   0.0000
    12 O4'        -17.0510    -6.1900     9.5810 O.3          1 GDP220   0.0000
    13 C3'        -19.3460    -5.7730     9.4640 C.3          1 GDP220   0.0000
    14 O3'        -19.5770    -5.3210     8.1350 O.3          1 GDP220   0.0000
    15 C2'        -19.1580    -7.2560     9.4030 C.3          1 GDP220   0.0000
    16 O2'        -19.9640    -7.8610     8.3960 O.3          1 GDP220   0.0000
    17 C1'        -17.6800    -7.3730     9.0840 C.3          1 GDP220   0.0000
    18 N9         -17.1200    -8.5870     9.7120 N.pl3        1 GDP220   0.0000
    19 C8         -17.2580    -8.9830    10.9920 C.2          1 GDP220   0.0000
    20 N7         -16.6180   -10.1580    11.1880 N.2          1 GDP220   0.0000
    21 C5         -16.0570   -10.5140    10.0350 C.2          1 GDP220   0.0000
    22 C6         -15.2410   -11.6440     9.5700 C.2          1 GDP220   0.0000
    23 O6         -14.9090   -12.5870    10.3270 O.2          1 GDP220   0.0000
    24 N1         -14.8750   -11.5960     8.2880 N.pl3        1 GDP220   0.0000
    25 C2         -15.2330   -10.6000     7.4340 C.2          1 GDP220   0.0000
    26 N2         -14.8240   -10.6370     6.1460 N.pl3        1 GDP220   0.0000
    27 N3         -15.9760    -9.5460     7.7950 N.2          1 GDP220   0.0000
    28 C4         -16.3900    -9.4670     9.0650 C.2          1 GDP220   0.0000
    29 H5'1       -17.5611    -6.0018    11.8642 H            1 GDP220   0.0000
    30 H5'2       -17.2814    -4.3976    11.7423 H            1 GDP220   0.0000
    31 H4'        -17.8233    -4.3453     9.5723 H            1 GDP220   0.0000
    32 H3'        -20.1036    -5.5270    10.0686 H            1 GDP220   0.0000
    33 H5         -20.4491    -5.6836     7.8064 H            1 GDP220   0.0000
    34 H2'        -19.3527    -7.6660    10.2941 H            1 GDP220   0.0000
    35 H7         -20.8487    -8.1165     8.7860 H            1 GDP220   0.0000
    36 H1'        -17.5566    -7.4240     8.0930 H            1 GDP220   0.0000
    37 H9         -17.7609    -8.4808    11.6955 H            1 GDP220   0.0000
    38 H10        -14.3035   -12.3363     7.9340 H            1 GDP220   0.0000
    39 H11        -15.0864    -9.9054     5.5168 H            1 GDP220   0.0000
    40 H12        -14.2590   -11.3960     5.8224 H            1 GDP220   0.0000
@<TRIPOS>BOND
     1    1    2      ar
     2    1    3      ar
     3    1    4      ar
     4    1    5       1
     5    5    6       1
     6    6    7      ar
     7    6    8      ar
     8    6    9       1
     9    9   10       1
    10   10   11       1
    11   11   12       1
    12   11   13       1
    13   12   17       1
    14   13   14       1
    15   13   15       1
    16   15   16       1
    17   15   17       1
    18   17   18       1
    19   18   19       1
    20   18   28       1
    21   19   20       2
    22   20   21       1
    23   21   22       1
    24   21   28       2
    25   22   23       2
    26   22   24       1
    27   24   25       1
    28   25   26       1
    29   25   27       2
    30   27   28       1
    31   26   40       1
    32   26   39       1
    33   24   38       1
    34   10   29       1
    35   10   30       1
    36   11   31       1
    37   13   32       1
    38   14   33       1
    39   15   34       1
    40   16   35       1
    41   17   36       1
    42   19   37       1
@<TRIPOS>SUBSTRUCTURE
     1 GDP220      1 GROUP             4 C     GDP     0 **** GDP C 220
