@<TRIPOS>MOLECULE
4cta_ATP_2_ligand
   43    45     1     0     0
SMALL
NO_CHARGES


@<TRIPOS>ATOM
     1 PG          36.8600    42.2240    13.9630 P.3          1 ATP400   0.0000
     2 O1G         38.1660    41.8680    13.3720 O.co2        1 ATP400   0.0000
     3 O2G         35.8830    42.8040    13.0060 O.co2        1 ATP400  -1.0000
     4 O3G         36.2630    41.2420    14.9270 O.co2        1 ATP400  -1.0000
     5 PB          37.6340    44.8630    15.1190 P.3          1 ATP400   0.0000
     6 O1B         37.6870    45.3940    16.5180 O.co2        1 ATP400   0.0000
     7 O2B         38.7700    45.0990    14.1370 O.co2        1 ATP400  -1.0000
     8 O3B         37.1250    43.3330    15.1670 O.3          1 ATP400   0.0000
     9 PA          36.5680    46.7610    13.3050 P.3          1 ATP400   0.0000
    10 O1A         36.9090    47.9290    14.1910 O.co2        1 ATP400   0.0000
    11 O2A         37.4570    46.4340    12.1140 O.co2        1 ATP400  -1.0000
    12 O3A         36.3410    45.5590    14.4100 O.3          1 ATP400   0.0000
    13 O5'         35.1850    46.9280    12.6050 O.3          1 ATP400   0.0000
    14 C5'         34.0740    46.2360    13.0320 C.3          1 ATP400   0.0000
    15 C4'         32.9950    46.2730    12.0150 C.3          1 ATP400   0.0000
    16 O4'         31.9830    46.3940    12.9960 O.3          1 ATP400   0.0000
    17 C3'         32.8480    47.5570    11.1760 C.3          1 ATP400   0.0000
    18 O3'         33.0570    47.3470     9.7620 O.3          1 ATP400   0.0000
    19 C2'         31.4010    47.9720    11.4040 C.3          1 ATP400   0.0000
    20 O2'         30.6610    47.2780    10.4000 O.3          1 ATP400   0.0000
    21 C1'         31.0440    47.4330    12.7680 C.3          1 ATP400   0.0000
    22 N9          31.3290    48.4850    13.8150 N.pl3        1 ATP400   0.0000
    23 C8          32.5670    48.8420    14.2650 C.2          1 ATP400   0.0000
    24 N7          32.5050    49.8320    15.1980 N.2          1 ATP400   0.0000
    25 C5          31.2010    50.1360    15.3370 C.ar         1 ATP400   0.0000
    26 C6          30.4450    51.1210    16.1150 C.ar         1 ATP400   0.0000
    27 N6          31.0860    51.9540    16.9690 N.pl3        1 ATP400   0.0000
    28 N1          29.1050    51.1170    16.0190 N.ar         1 ATP400   0.0000
    29 C2          28.4560    50.2700    15.1710 C.ar         1 ATP400   0.0000
    30 N3          29.1000    49.3740    14.3940 N.ar         1 ATP400   0.0000
    31 C4          30.4330    49.2450    14.4450 C.ar         1 ATP400   0.0000
    32 H5'1        33.7383    46.6486    13.8788 H            1 ATP400   0.0000
    33 H5'2        34.3285    45.2842    13.2030 H            1 ATP400   0.0000
    34 H4'         32.9279    45.4342    11.4747 H            1 ATP400   0.0000
    35 H3'         33.4679    48.2644    11.5155 H            1 ATP400   0.0000
    36 H5          32.7816    46.4169     9.5189 H            1 ATP400   0.0000
    37 H2'         31.2788    48.9628    11.3458 H            1 ATP400   0.0000
    38 H7          30.3722    46.3884    10.7539 H            1 ATP400   0.0000
    39 H1'         30.1002    47.1049    12.8093 H            1 ATP400   0.0000
    40 H9          33.4189    48.4258    13.9472 H            1 ATP400   0.0000
    41 H10         30.5660    52.6247    17.4980 H            1 ATP400   0.0000
    42 H11         32.0793    51.8984    17.0706 H            1 ATP400   0.0000
    43 H12         27.4582    50.3145    15.1224 H            1 ATP400   0.0000
@<TRIPOS>BOND
     1    1    2      ar
     2    1    3      ar
     3    1    4      ar
     4    1    8       1
     5    5    6      ar
     6    5    7      ar
     7    5    8       1
     8    5   12       1
     9    9   10      ar
    10    9   11      ar
    11    9   12       1
    12    9   13       1
    13   13   14       1
    14   14   15       1
    15   15   16       1
    16   15   17       1
    17   16   21       1
    18   17   18       1
    19   17   19       1
    20   19   20       1
    21   19   21       1
    22   21   22       1
    23   22   23       1
    24   22   31       1
    25   23   24       2
    26   24   25       1
    27   25   26      ar
    28   25   31      ar
    29   26   27       1
    30   26   28      ar
    31   28   29      ar
    32   29   30      ar
    33   30   31      ar
    34   29   43       1
    35   27   42       1
    36   27   41       1
    37   23   40       1
    38   14   32       1
    39   14   33       1
    40   15   34       1
    41   17   35       1
    42   18   36       1
    43   19   37       1
    44   20   38       1
    45   21   39       1
@<TRIPOS>SUBSTRUCTURE
     1 ATP400      1 GROUP             4 B     ATP     0 **** ATP B 400
