@<TRIPOS>MOLECULE
./coach420/3i0d/ligand.pdb
 25 26 0 0 0
SMALL
GASTEIGER

@<TRIPOS>ATOM
      1  N1       -16.2070  -23.0180    7.6760 N.ar    1  UDP1       -0.2534
      2  C2       -17.4030  -23.7280    7.9630 C.ar    1  UDP1        0.3546
      3  N3       -17.8980  -23.6880    9.2920 N.ar    1  UDP1       -0.1530
      4  C4       -17.1760  -22.9850   10.3080 C.ar    1  UDP1        0.2846
      5  C5       -15.9970  -22.2910    9.9930 C.ar    1  UDP1        0.0814
      6  C6       -15.5230  -22.3010    8.6830 C.ar    1  UDP1        0.0870
      7  O2       -18.0160  -24.3240    7.0540 O.2     1  UDP1       -0.2443
      8  O4       -17.6010  -22.9830   11.4690 O.2     1  UDP1       -0.2650
      9  C1'      -15.7220  -23.0530    6.2730 C.3     1  UDP1        0.2421
     10  C2'      -16.5790  -22.1530    5.3910 C.3     1  UDP1        0.2338
     11  O2'      -16.5020  -22.6020    4.0560 O.3     1  UDP1       -0.2155
     12  C3'      -15.7720  -20.9130    5.4220 C.3     1  UDP1        0.2161
     13  C4'      -14.3070  -21.3670    5.4730 C.3     1  UDP1        0.1801
     14  O4'      -14.3220  -22.5970    6.2140 O.3     1  UDP1       -0.3306
     15  O3'      -15.9900  -20.1690    4.1840 O.3     1  UDP1       -0.2175
     16  C5'      -13.2860  -20.3600    6.1740 C.3     1  UDP1        0.1813
     17  O5'      -13.9040  -19.5150    7.2320 O.3     1  UDP1       -0.3111
     18  PA       -14.3720  -17.8710    7.0370 P.3     1  UDP1        0.2231
     19  O1A      -15.0160  -18.0900    8.5290 O.3     1  UDP1       -0.4370
     20  O2A      -15.2000  -18.1800    5.7770 O.2     1  UDP1       -0.5169
     21  O3A      -12.7080  -17.8250    6.9710 O.3     1  UDP1       -0.2261
     22  PB       -11.9130  -16.5880    6.1280 P.3     1  UDP1        0.5373
     23  O1B      -10.7420  -17.3530    7.1100 O.3     1  UDP1       -0.1143
     24  O2B      -12.9590  -15.5610    6.5960 O.3     1  UDP1       -0.1143
     25  O3B      -12.2980  -17.5530    4.8520 O.2     1  UDP1       -0.2221
@<TRIPOS>BOND
     1     1     9    1
     2     1     2   ar
     3     1     6   ar
     4     2     7    2
     5     2     3   ar
     6     3     4   ar
     7     4     5   ar
     8     4     8    2
     9     5     6   ar
    10     9    10    1
    11     9    14    1
    12    10    11    1
    13    10    12    1
    14    12    15    1
    15    12    13    1
    16    13    16    1
    17    13    14    1
    18    16    17    1
    19    17    18    1
    20    18    20    2
    21    18    21    1
    22    18    19    1
    23    21    22    1
    24    22    25    2
    25    22    24    1
    26    22    23    1
