@<TRIPOS>MOLECULE
4f7n_0SV_1_ligand
   56    57     1     0     0
SMALL
NO_CHARGES


@<TRIPOS>ATOM
     1 O20         -4.8150   -22.3490   153.9230 O.2          1 0SV501   0.0000
     2 C18         -3.7150   -22.7900   154.1390 C.2          1 0SV501   0.0000
     3 N19         -3.0820   -23.5990   153.1940 N.am         1 0SV501   0.0000
     4 C21         -3.6460   -23.9680   151.8790 C.3          1 0SV501   0.0000
     5 C22         -5.0570   -24.5550   151.8500 C.3          1 0SV501   0.0000
     6 C23         -5.2900   -25.1200   150.4380 C.3          1 0SV501   0.0000
     7 C24         -6.7820   -25.1610   150.0830 C.3          1 0SV501   0.0000
     8 C25         -6.9460   -25.1560   148.5650 C.3          1 0SV501   0.0000
     9 O26         -8.1970   -25.7420   148.2460 O.3          1 0SV501   0.0000
    10 N17         -3.0670   -22.5610   155.3550 N.am         1 0SV501   0.0000
    11 C1          -3.5030   -21.7010   156.4100 C.2          1 0SV501   0.0000
    12 N5          -2.6850   -21.0650   157.2770 N.pl3        1 0SV501   0.0000
    13 N4          -3.3230   -20.3000   158.0310 N.2          1 0SV501   0.0000
    14 C3          -4.6270   -20.3650   157.7310 C.2          1 0SV501   0.0000
    15 C12         -5.7470   -19.6000   158.4470 C.3          1 0SV501   0.0000
    16 C15         -6.5470   -20.6170   159.2890 C.3          1 0SV501   0.0000
    17 C14         -6.6760   -18.9640   157.3810 C.3          1 0SV501   0.0000
    18 C13         -5.1710   -18.5140   159.3940 C.3          1 0SV501   0.0000
    19 C2          -4.7880   -21.2620   156.6870 C.2          1 0SV501   0.0000
    20 C6          -1.2240   -21.1580   157.3810 C.ar         1 0SV501   0.0000
    21 C11         -0.4470   -21.0520   156.2280 C.ar         1 0SV501   0.0000
    22 C9           0.9380   -21.1160   156.2970 C.ar         1 0SV501   0.0000
    23 C7           1.5550   -21.2590   157.5240 C.ar         1 0SV501   0.0000
    24 C16          3.0580   -21.3180   157.5690 C.3          1 0SV501   0.0000
    25 C8           0.7840   -21.3450   158.6870 C.ar         1 0SV501   0.0000
    26 C10         -0.6060   -21.2860   158.6180 C.ar         1 0SV501   0.0000
    27 H1          -2.1770   -23.9565   153.4247 H            1 0SV501   0.0000
    28 H2          -3.0329   -24.6441   151.4702 H            1 0SV501   0.0000
    29 H3          -3.6546   -23.1420   151.3154 H            1 0SV501   0.0000
    30 H4          -5.7286   -23.8410   152.0478 H            1 0SV501   0.0000
    31 H5          -5.1375   -25.2854   152.5282 H            1 0SV501   0.0000
    32 H6          -4.9210   -26.0484   150.3954 H            1 0SV501   0.0000
    33 H7          -4.8148   -24.5417   149.7749 H            1 0SV501   0.0000
    34 H8          -7.2386   -24.3599   150.4700 H            1 0SV501   0.0000
    35 H9          -7.1912   -25.9921   150.4595 H            1 0SV501   0.0000
    36 H10         -6.2087   -25.6846   148.1443 H            1 0SV501   0.0000
    37 H11         -6.9176   -24.2158   148.2257 H            1 0SV501   0.0000
    38 H12         -8.4349   -26.4195   148.9420 H            1 0SV501   0.0000
    39 H13         -2.2075   -23.0503   155.5030 H            1 0SV501   0.0000
    40 H14         -7.2864   -20.1444   159.7685 H            1 0SV501   0.0000
    41 H15         -6.9332   -21.3167   158.6880 H            1 0SV501   0.0000
    42 H16         -5.9396   -21.0487   159.9559 H            1 0SV501   0.0000
    43 H17         -7.4111   -18.4619   157.8364 H            1 0SV501   0.0000
    44 H18         -6.1472   -18.3359   156.8101 H            1 0SV501   0.0000
    45 H19         -7.0688   -19.6840   156.8089 H            1 0SV501   0.0000
    46 H20         -5.9224   -18.0330   159.8457 H            1 0SV501   0.0000
    47 H21         -4.5901   -18.9469   160.0833 H            1 0SV501   0.0000
    48 H22         -4.6292   -17.8622   158.8633 H            1 0SV501   0.0000
    49 H23         -5.6387   -21.5315   156.2357 H            1 0SV501   0.0000
    50 H24         -0.8926   -20.9285   155.3413 H            1 0SV501   0.0000
    51 H25          1.4860   -21.0588   155.4625 H            1 0SV501   0.0000
    52 H26          3.3593   -21.4221   158.5168 H            1 0SV501   0.0000
    53 H27          3.3773   -22.0976   157.0302 H            1 0SV501   0.0000
    54 H28          3.4362   -20.4735   157.1898 H            1 0SV501   0.0000
    55 H29          1.2333   -21.4496   159.5742 H            1 0SV501   0.0000
    56 H30         -1.1545   -21.3354   159.4527 H            1 0SV501   0.0000
@<TRIPOS>BOND
     1    1    2       2
     2    2    3      am
     3    2   10      am
     4    3    4       1
     5    4    5       1
     6    5    6       1
     7    6    7       1
     8    7    8       1
     9    8    9       1
    10   10   11       1
    11   11   12       1
    12   11   19       2
    13   12   13       1
    14   12   20       1
    15   13   14       2
    16   14   15       1
    17   14   19       1
    18   15   16       1
    19   15   17       1
    20   15   18       1
    21   20   21      ar
    22   20   26      ar
    23   21   22      ar
    24   22   23      ar
    25   23   24       1
    26   23   25      ar
    27   25   26      ar
    28    3   27       1
    29    4   28       1
    30    4   29       1
    31    5   30       1
    32    5   31       1
    33    6   32       1
    34    6   33       1
    35    7   34       1
    36    7   35       1
    37    8   36       1
    38    8   37       1
    39    9   38       1
    40   10   39       1
    41   16   40       1
    42   16   41       1
    43   16   42       1
    44   17   43       1
    45   17   44       1
    46   17   45       1
    47   18   46       1
    48   18   47       1
    49   18   48       1
    50   19   49       1
    51   21   50       1
    52   22   51       1
    53   24   52       1
    54   24   53       1
    55   24   54       1
    56   25   55       1
    57   26   56       1
@<TRIPOS>SUBSTRUCTURE
     1 0SV501      1 GROUP             4 A     0SV     0 **** 0SV A 501
