@<TRIPOS>MOLECULE
1olm_VTQ_2_ligand
   82    82     1     0     0
SMALL
NO_CHARGES


@<TRIPOS>ATOM
     1 O3         -22.5940    25.0760    86.4770 O.3          1 VTQ1323   0.0000
     2 C9         -22.5590    25.4600    87.8600 C.3          1 VTQ1323   0.0000
     3 C14        -23.6610    26.4770    88.1250 C.3          1 VTQ1323   0.0000
     4 C11        -22.7970    24.2330    88.7190 C.3          1 VTQ1323   0.0000
     5 C10        -21.8630    23.0920    88.3350 C.3          1 VTQ1323   0.0000
     6 C3         -22.5820    21.8070    88.6870 C.2          1 VTQ1323   0.0000
     7 C2         -22.1320    20.9610    89.6970 C.2          1 VTQ1323   0.0000
     8 C8         -20.8930    21.2980    90.4920 C.3          1 VTQ1323   0.0000
     9 C4         -23.7170    21.4890    87.9660 C.2          1 VTQ1323   0.0000
    10 O1         -24.1010    22.2450    87.0770 O.2          1 VTQ1323   0.0000
    11 C5         -24.4240    20.3320    88.2350 C.2          1 VTQ1323   0.0000
    12 C12        -25.6610    20.0260    87.4200 C.3          1 VTQ1323   0.0000
    13 C6         -23.9840    19.4780    89.2430 C.2          1 VTQ1323   0.0000
    14 C13        -24.7540    18.2120    89.5350 C.3          1 VTQ1323   0.0000
    15 C7         -22.8370    19.7890    89.9790 C.2          1 VTQ1323   0.0000
    16 O2         -22.4440    19.0310    90.8790 O.2          1 VTQ1323   0.0000
    17 C15        -21.1920    26.0490    88.2320 C.3          1 VTQ1323   0.0000
    18 C16        -21.2380    26.8880    89.5100 C.3          1 VTQ1323   0.0000
    19 C17        -19.8770    27.5460    89.7290 C.3          1 VTQ1323   0.0000
    20 C18        -19.7480    28.3400    91.0220 C.3          1 VTQ1323   0.0000
    21 C19        -18.3580    28.9540    91.1070 C.3          1 VTQ1323   0.0000
    22 C20        -20.0260    27.4240    92.2030 C.3          1 VTQ1323   0.0000
    23 C21        -19.3710    27.9290    93.4920 C.3          1 VTQ1323   0.0000
    24 C22        -19.8390    26.9760    94.5940 C.3          1 VTQ1323   0.0000
    25 C23        -19.5520    27.5470    95.9750 C.3          1 VTQ1323   0.0000
    26 C1         -18.0700    27.3860    96.2780 C.3          1 VTQ1323   0.0000
    27 C24        -20.4380    26.8970    97.0480 C.3          1 VTQ1323   0.0000
    28 C25        -20.4070    25.3780    97.1200 C.3          1 VTQ1323   0.0000
    29 C26        -21.1460    24.9210    98.3800 C.3          1 VTQ1323   0.0000
    30 C27        -20.9560    23.4360    98.7000 C.3          1 VTQ1323   0.0000
    31 C28        -21.8540    23.0060    99.8510 C.3          1 VTQ1323   0.0000
    32 C29        -21.2230    22.5310    97.5120 C.3          1 VTQ1323   0.0000
    33 H1         -22.9368    25.8383    85.9280 H            1 VTQ1323   0.0000
    34 H2         -23.6405    26.7475    89.0875 H            1 VTQ1323   0.0000
    35 H3         -23.5172    27.2820    87.5494 H            1 VTQ1323   0.0000
    36 H4         -24.5490    26.0694    87.9122 H            1 VTQ1323   0.0000
    37 H5         -23.7433    23.9321    88.6005 H            1 VTQ1323   0.0000
    38 H6         -22.6408    24.4721    89.6773 H            1 VTQ1323   0.0000
    39 H7         -21.0068    23.1597    88.8472 H            1 VTQ1323   0.0000
    40 H8         -21.6680    23.1208    87.3546 H            1 VTQ1323   0.0000
    41 H9         -20.7253    20.5804    91.1680 H            1 VTQ1323   0.0000
    42 H10        -20.1089    21.3645    89.8750 H            1 VTQ1323   0.0000
    43 H11        -21.0244    22.1722    90.9594 H            1 VTQ1323   0.0000
    44 H12        -26.0592    19.1626    87.7299 H            1 VTQ1323   0.0000
    45 H13        -26.3279    20.7618    87.5373 H            1 VTQ1323   0.0000
    46 H14        -25.4136    19.9512    86.4540 H            1 VTQ1323   0.0000
    47 H15        -24.3092    17.7158    90.2806 H            1 VTQ1323   0.0000
    48 H16        -25.6895    18.4447    89.8009 H            1 VTQ1323   0.0000
    49 H17        -24.7731    17.6373    88.7169 H            1 VTQ1323   0.0000
    50 H18        -20.8782    26.6287    87.4800 H            1 VTQ1323   0.0000
    51 H19        -20.5458    25.2977    88.3658 H            1 VTQ1323   0.0000
    52 H20        -21.4539    26.2992    90.2889 H            1 VTQ1323   0.0000
    53 H21        -21.9404    27.5942    89.4212 H            1 VTQ1323   0.0000
    54 H22        -19.7062    28.1677    88.9646 H            1 VTQ1323   0.0000
    55 H23        -19.1820    26.8270    89.7356 H            1 VTQ1323   0.0000
    56 H24        -20.4256    29.0754    91.0178 H            1 VTQ1323   0.0000
    57 H25        -18.2751    29.4749    91.9566 H            1 VTQ1323   0.0000
    58 H26        -17.6712    28.2273    91.0932 H            1 VTQ1323   0.0000
    59 H27        -18.2144    29.5632    90.3271 H            1 VTQ1323   0.0000
    60 H28        -19.6689    26.5133    91.9955 H            1 VTQ1323   0.0000
    61 H29        -21.0146    27.3704    92.3435 H            1 VTQ1323   0.0000
    62 H30        -19.6664    28.8636    93.6904 H            1 VTQ1323   0.0000
    63 H31        -18.3747    27.9047    93.4097 H            1 VTQ1323   0.0000
    64 H32        -19.3599    26.1037    94.4958 H            1 VTQ1323   0.0000
    65 H33        -20.8236    26.8279    94.5006 H            1 VTQ1323   0.0000
    66 H34        -19.7588    28.5252    95.9542 H            1 VTQ1323   0.0000
    67 H35        -17.8727    27.7590    97.1846 H            1 VTQ1323   0.0000
    68 H36        -17.8290    26.4157    96.2571 H            1 VTQ1323   0.0000
    69 H37        -17.5341    27.8774    95.5915 H            1 VTQ1323   0.0000
    70 H38        -21.3825    27.1742    96.8718 H            1 VTQ1323   0.0000
    71 H39        -20.1475    27.2499    97.9374 H            1 VTQ1323   0.0000
    72 H40        -19.4583    25.0638    97.1557 H            1 VTQ1323   0.0000
    73 H41        -20.8547    24.9953    96.3119 H            1 VTQ1323   0.0000
    74 H42        -22.1227    25.0943    98.2536 H            1 VTQ1323   0.0000
    75 H43        -20.8100    25.4565    99.1548 H            1 VTQ1323   0.0000
    76 H44        -20.0064    23.3009    98.9830 H            1 VTQ1323   0.0000
    77 H45        -21.7114    22.0344   100.0400 H            1 VTQ1323   0.0000
    78 H46        -21.6302    23.5405   100.6660 H            1 VTQ1323   0.0000
    79 H47        -22.8104    23.1605    99.6033 H            1 VTQ1323   0.0000
    80 H48        -21.0835    21.5780    97.7809 H            1 VTQ1323   0.0000
    81 H49        -22.1660    22.6556    97.2033 H            1 VTQ1323   0.0000
    82 H50        -20.5955    22.7629    96.7687 H            1 VTQ1323   0.0000
@<TRIPOS>BOND
     1    1    2       1
     2    2    3       1
     3    2    4       1
     4    2   17       1
     5    4    5       1
     6    5    6       1
     7    6    7       2
     8    6    9       1
     9    7    8       1
    10    7   15       1
    11    9   10       2
    12    9   11       1
    13   11   12       1
    14   11   13       2
    15   13   14       1
    16   13   15       1
    17   15   16       2
    18   17   18       1
    19   18   19       1
    20   19   20       1
    21   20   21       1
    22   20   22       1
    23   22   23       1
    24   23   24       1
    25   24   25       1
    26   25   26       1
    27   25   27       1
    28   27   28       1
    29   28   29       1
    30   29   30       1
    31   30   31       1
    32   30   32       1
    33    1   33       1
    34    3   34       1
    35    3   35       1
    36    3   36       1
    37    4   37       1
    38    4   38       1
    39    5   39       1
    40    5   40       1
    41    8   41       1
    42    8   42       1
    43    8   43       1
    44   12   44       1
    45   12   45       1
    46   12   46       1
    47   14   47       1
    48   14   48       1
    49   14   49       1
    50   17   50       1
    51   17   51       1
    52   18   52       1
    53   18   53       1
    54   19   54       1
    55   19   55       1
    56   20   56       1
    57   21   57       1
    58   21   58       1
    59   21   59       1
    60   22   60       1
    61   22   61       1
    62   23   62       1
    63   23   63       1
    64   24   64       1
    65   24   65       1
    66   25   66       1
    67   26   67       1
    68   26   68       1
    69   26   69       1
    70   27   70       1
    71   27   71       1
    72   28   72       1
    73   28   73       1
    74   29   74       1
    75   29   75       1
    76   30   76       1
    77   31   77       1
    78   31   78       1
    79   31   79       1
    80   32   80       1
    81   32   81       1
    82   32   82       1
@<TRIPOS>SUBSTRUCTURE
     1 VTQ1323     1 GROUP             4 C     VTQ     0 **** VTQ C1323
