@<TRIPOS>MOLECULE
4mb2_ATP_4_ligand
   43    45     1     0     0
SMALL
NO_CHARGES


@<TRIPOS>ATOM
     1 PG          38.3030    33.1840    36.0620 P.3          1 ATP301   0.0000
     2 O1G         39.3550    33.9640    35.3080 O.co2        1 ATP301   0.0000
     3 O2G         36.9430    33.8670    36.1670 O.co2        1 ATP301  -1.0000
     4 O3G         38.8150    32.5250    37.3180 O.co2        1 ATP301  -1.0000
     5 PB          36.6230    32.1150    34.2050 P.3          1 ATP301   0.0000
     6 O1B         36.3540    33.5700    33.8870 O.co2        1 ATP301   0.0000
     7 O2B         36.6810    31.0530    33.1300 O.co2        1 ATP301  -1.0000
     8 O3B         37.9620    31.9640    35.0900 O.3          1 ATP301   0.0000
     9 PA          34.2200    30.8220    34.6640 P.3          1 ATP301   0.0000
    10 O1A         34.5990    30.2100    33.3320 O.co2        1 ATP301   0.0000
    11 O2A         32.9420    31.6220    34.7620 O.co2        1 ATP301  -1.0000
    12 O3A         35.4410    31.7140    35.2100 O.3          1 ATP301   0.0000
    13 O5'         34.2800    29.6800    35.8030 O.3          1 ATP301   0.0000
    14 C5'         35.3250    28.7130    35.7040 C.3          1 ATP301   0.0000
    15 C4'         35.8100    28.2560    37.0670 C.3          1 ATP301   0.0000
    16 O4'         35.5160    26.8670    37.2110 O.3          1 ATP301   0.0000
    17 C3'         37.3230    28.3990    37.1830 C.3          1 ATP301   0.0000
    18 O3'         37.6820    29.0250    38.4100 O.3          1 ATP301   0.0000
    19 C2'         37.8700    27.0010    37.2500 C.3          1 ATP301   0.0000
    20 O2'         38.9070    27.0350    38.2360 O.3          1 ATP301   0.0000
    21 C1'         36.6680    26.1870    37.6890 C.3          1 ATP301   0.0000
    22 N9          36.6250    24.7980    37.2060 N.pl3        1 ATP301   0.0000
    23 C8          36.7370    24.3750    35.9360 C.2          1 ATP301   0.0000
    24 N7          36.5960    23.0260    35.8630 N.2          1 ATP301   0.0000
    25 C5          36.2190    22.6030    37.0910 C.ar         1 ATP301   0.0000
    26 C6          35.9420    21.3020    37.7410 C.ar         1 ATP301   0.0000
    27 N6          35.8750    20.1590    37.0030 N.pl3        1 ATP301   0.0000
    28 N1          35.6880    21.2970    39.0790 N.ar         1 ATP301   0.0000
    29 C2          35.7690    22.4140    39.8330 C.ar         1 ATP301   0.0000
    30 N3          36.0970    23.6040    39.3160 N.ar         1 ATP301   0.0000
    31 C4          36.2890    23.7680    37.9790 C.ar         1 ATP301   0.0000
    32 H5'1        36.0929    29.1176    35.2074 H            1 ATP301   0.0000
    33 H5'2        34.9834    27.9194    35.2004 H            1 ATP301   0.0000
    34 H4'         35.3576    28.7809    37.7880 H            1 ATP301   0.0000
    35 H3'         37.6991    28.8962    36.4011 H            1 ATP301   0.0000
    36 H5          37.3520    28.4723    39.1752 H            1 ATP301   0.0000
    37 H2'         38.2158    26.6978    36.3620 H            1 ATP301   0.0000
    38 H7          38.5195    26.8289    39.1345 H            1 ATP301   0.0000
    39 H1'         36.6391    26.1768    38.6885 H            1 ATP301   0.0000
    40 H9          36.9018    24.9721    35.1510 H            1 ATP301   0.0000
    41 H10         35.6874    19.2849    37.4510 H            1 ATP301   0.0000
    42 H11         36.0134    20.1940    36.0133 H            1 ATP301   0.0000
    43 H12         35.5771    22.3499    40.8123 H            1 ATP301   0.0000
@<TRIPOS>BOND
     1    1    2      ar
     2    1    3      ar
     3    1    4      ar
     4    1    8       1
     5    5    6      ar
     6    5    7      ar
     7    5    8       1
     8    5   12       1
     9    9   10      ar
    10    9   11      ar
    11    9   12       1
    12    9   13       1
    13   13   14       1
    14   14   15       1
    15   15   16       1
    16   15   17       1
    17   16   21       1
    18   17   18       1
    19   17   19       1
    20   19   20       1
    21   19   21       1
    22   21   22       1
    23   22   23       1
    24   22   31       1
    25   23   24       2
    26   24   25       1
    27   25   26      ar
    28   25   31      ar
    29   26   27       1
    30   26   28      ar
    31   28   29      ar
    32   29   30      ar
    33   30   31      ar
    34   29   43       1
    35   27   42       1
    36   27   41       1
    37   23   40       1
    38   14   32       1
    39   14   33       1
    40   15   34       1
    41   17   35       1
    42   18   36       1
    43   19   37       1
    44   20   38       1
    45   21   39       1
@<TRIPOS>SUBSTRUCTURE
     1 ATP301      1 GROUP             4 D     ATP     0 **** ATP D 301
