@<TRIPOS>MOLECULE
1rne_C60_1_ligand
  114   116     1     0     0
SMALL
NO_CHARGES


@<TRIPOS>ATOM
     1 CS1          9.1160    16.0980    59.0500 C.3          1 C60350   0.0000
     2 CS2          7.8530    16.9150    59.3700 C.3          1 C60350   0.0000
     3 CS3          8.7990    15.0250    57.9910 C.3          1 C60350   0.0000
     4 CS4         10.2730    16.9410    58.5040 C.3          1 C60350   0.0000
     5 SS           9.7080    15.3800    60.4890 S.o2         1 C60350   0.0000
     6 OS1         10.9360    14.7290    60.1540 O.2          1 C60350   0.0000
     7 OS2          8.8400    14.4200    60.9770 O.2          1 C60350   0.0000
     8 CNF          9.8840    16.5330    61.7090 C.3          1 C60350   0.0000
     9 CAF         10.5650    15.8190    62.8580 C.3          1 C60350   0.0000
    10 CBF         11.2310    16.8380    63.6810 C.3          1 C60350   0.0000
    11 C1F         12.3950    17.4700    62.9910 C.ar         1 C60350   0.0000
    12 C2F         12.1620    18.6860    62.4280 C.ar         1 C60350   0.0000
    13 C3F         13.2060    19.3510    61.7750 C.ar         1 C60350   0.0000
    14 C4F         14.5050    18.7940    61.7260 C.ar         1 C60350   0.0000
    15 C5F         14.7640    17.5730    62.3190 C.ar         1 C60350   0.0000
    16 C6F         13.7010    16.9050    62.9720 C.ar         1 C60350   0.0000
    17 CF           9.6000    15.3690    63.8630 C.2          1 C60350   0.0000
    18 OF           8.6780    16.0960    64.1250 O.2          1 C60350   0.0000
    19 NH           9.9130    14.2450    64.4430 N.am         1 C60350   0.0000
    20 CAH          9.1070    13.6870    65.4460 C.3          1 C60350   0.0000
    21 CBH          8.1770    12.5680    64.9110 C.3          1 C60350   0.0000
    22 C1H          6.8770    12.2330    65.6820 C.2          1 C60350   0.0000
    23 N1H          6.7750    11.2140    66.6560 N.pl3        1 C60350   0.0000
    24 C2H          5.6480    12.7740    65.5600 C.2          1 C60350   0.0000
    25 N2H          4.8150    12.1090    66.4480 N.2          1 C60350   0.0000
    26 C3H          5.5210    11.1890    67.0860 C.2          1 C60350   0.0000
    27 CH          10.0840    13.1450    66.4600 C.2          1 C60350   0.0000
    28 OH          10.7220    12.0980    66.2910 O.2          1 C60350   0.0000
    29 NC          10.1340    13.8920    67.5440 N.am         1 C60350   0.0000
    30 CAC         10.9580    13.6050    68.7020 C.3          1 C60350   0.0000
    31 CBC         11.5650    14.8660    69.2410 C.3          1 C60350   0.0000
    32 C1C         12.3190    15.4980    68.1170 C.3          1 C60350   0.0000
    33 C2C         13.1700    16.6640    68.6050 C.3          1 C60350   0.0000
    34 C3C         13.8010    17.2940    67.3620 C.3          1 C60350   0.0000
    35 C4C         14.8180    16.3160    66.7630 C.3          1 C60350   0.0000
    36 C5C         14.2450    14.9070    66.5540 C.3          1 C60350   0.0000
    37 C6C         13.2460    14.4230    67.6390 C.3          1 C60350   0.0000
    38 CC          10.2730    12.9040    69.8880 C.3          1 C60350   0.0000
    39 OC           9.3960    13.7580    70.6190 O.3          1 C60350   0.0000
    40 CNV          9.5990    11.6040    69.4900 C.3          1 C60350   0.0000
    41 CAV          9.4900    10.6970    70.6930 C.3          1 C60350   0.0000
    42 CBV          8.3540     9.6780    70.5370 C.3          1 C60350   0.0000
    43 C1V          8.6710     8.5120    71.3910 C.3          1 C60350   0.0000
    44 C2V          7.0380    10.1740    71.0900 C.3          1 C60350   0.0000
    45 CV          10.7830     9.9610    70.9650 C.2          1 C60350   0.0000
    46 OV          11.5020     9.6090    70.0400 O.2          1 C60350   0.0000
    47 NT          10.9780     9.7270    72.2600 N.am         1 C60350   0.0000
    48 C1T         12.0110     8.9910    72.9110 C.3          1 C60350   0.0000
    49 C2T         13.3710     9.5010    72.6680 C.3          1 C60350   0.0000
    50 C3T         14.2550     8.5750    73.4820 C.3          1 C60350   0.0000
    51 C4T         15.6900     8.7540    72.9610 C.3          1 C60350   0.0000
    52 HS21         8.0696    17.6079    60.0577 H            1 C60350   0.0000
    53 HS22         7.5256    17.3623    58.5377 H            1 C60350   0.0000
    54 HS23         7.1425    16.3060    59.7227 H            1 C60350   0.0000
    55 HS31         9.6261    14.5000    57.7904 H            1 C60350   0.0000
    56 HS32         8.0910    14.4111    58.3401 H            1 C60350   0.0000
    57 HS33         8.4741    15.4674    57.1551 H            1 C60350   0.0000
    58 HS41        11.0578    16.3496    58.3185 H            1 C60350   0.0000
    59 HS42         9.9873    17.3909    57.6579 H            1 C60350   0.0000
    60 HS43        10.5291    17.6327    59.1793 H            1 C60350   0.0000
    61 HNF1         8.9895    16.8772    61.9943 H            1 C60350   0.0000
    62 HNF2        10.4477    17.2946    61.3894 H            1 C60350   0.0000
    63 HAF         11.1836    15.0934    62.5566 H            1 C60350   0.0000
    64 HBF1        11.5546    16.4068    64.5233 H            1 C60350   0.0000
    65 HBF2        10.5670    17.5513    63.9055 H            1 C60350   0.0000
    66 H2F         11.2536    19.1008    62.4802 H            1 C60350   0.0000
    67 H3F         13.0310    20.2327    61.3368 H            1 C60350   0.0000
    68 H4F         15.2400    19.2863    61.2598 H            1 C60350   0.0000
    69 H5F         15.6794    17.1716    62.2875 H            1 C60350   0.0000
    70 H6F         13.8689    16.0288    63.4238 H            1 C60350   0.0000
    71 HH          10.7478    13.7689    64.1664 H            1 C60350   0.0000
    72 HAH          8.5544    14.4060    65.8674 H            1 C60350   0.0000
    73 HBH1         8.7200    11.7290    64.8755 H            1 C60350   0.0000
    74 HBH2         7.9077    12.8302    63.9843 H            1 C60350   0.0000
    75 H2H          5.3857    13.5167    64.9439 H            1 C60350   0.0000
    76 H3H          5.1634    10.5699    67.7852 H            1 C60350   0.0000
    77 HC           9.5644    14.7135    67.5700 H            1 C60350   0.0000
    78 HAC         11.7078    13.0171    68.3984 H            1 C60350   0.0000
    79 HBC1        12.1860    14.6538    69.9955 H            1 C60350   0.0000
    80 HBC2        10.8471    15.4829    69.5636 H            1 C60350   0.0000
    81 H1C         11.6992    15.7873    67.3875 H            1 C60350   0.0000
    82 H2C1        13.8825    16.3355    69.2250 H            1 C60350   0.0000
    83 H2C2        12.5985    17.3338    69.0791 H            1 C60350   0.0000
    84 H3C1        14.2633    18.1437    67.6156 H            1 C60350   0.0000
    85 H3C2        13.0887    17.4903    66.6882 H            1 C60350   0.0000
    86 H4C1        15.6015    16.2528    67.3812 H            1 C60350   0.0000
    87 H4C2        15.1193    16.6718    65.8783 H            1 C60350   0.0000
    88 H5C1        15.0103    14.2637    66.5311 H            1 C60350   0.0000
    89 H5C2        13.7725    14.8944    65.6728 H            1 C60350   0.0000
    90 H6C1        12.6981    13.6793    67.2560 H            1 C60350   0.0000
    91 H6C2        13.7680    14.0837    68.4216 H            1 C60350   0.0000
    92 H41         11.0053    12.6530    70.5210 H            1 C60350   0.0000
    93 H42          8.4770    13.7052    70.2283 H            1 C60350   0.0000
    94 HNV1        10.1408    11.1522    68.7813 H            1 C60350   0.0000
    95 HNV2         8.6840    11.7987    69.1367 H            1 C60350   0.0000
    96 HAV          9.2861    11.2657    71.4898 H            1 C60350   0.0000
    97 HBV          8.2550     9.4010    69.5813 H            1 C60350   0.0000
    98 H1V1         7.9441     7.8304    71.3077 H            1 C60350   0.0000
    99 H1V2         9.5391     8.1109    71.0987 H            1 C60350   0.0000
   100 H1V3         8.7440     8.8067    72.3438 H            1 C60350   0.0000
   101 H2V1         6.3370     9.4725    70.9619 H            1 C60350   0.0000
   102 H2V2         7.1390    10.3701    72.0654 H            1 C60350   0.0000
   103 H2V3         6.7672    11.0077    70.6087 H            1 C60350   0.0000
   104 HT          10.2954    10.1289    72.8703 H            1 C60350   0.0000
   105 H1T1        11.9703     8.0449    72.5898 H            1 C60350   0.0000
   106 H1T2        11.8394     9.0163    73.8958 H            1 C60350   0.0000
   107 H2T1        13.4589    10.4459    72.9834 H            1 C60350   0.0000
   108 H2T2        13.6019     9.4511    71.6963 H            1 C60350   0.0000
   109 H3T1        13.9616     7.6265    73.3623 H            1 C60350   0.0000
   110 H3T2        14.2081     8.8186    74.4507 H            1 C60350   0.0000
   111 H4T1        16.3077     8.1579    73.4740 H            1 C60350   0.0000
   112 H4T2        15.7247     8.5142    71.9908 H            1 C60350   0.0000
   113 H4T3        15.9712     9.7063    73.0793 H            1 C60350   0.0000
   114 H1H          7.5162    10.6183    66.9655 H            1 C60350   0.0000
@<TRIPOS>BOND
     1    1    2       1
     2    1    3       1
     3    1    4       1
     4    1    5       1
     5    5    6       2
     6    5    7       2
     7    5    8       1
     8    8    9       1
     9    9   10       1
    10    9   17       1
    11   10   11       1
    12   11   12      ar
    13   11   16      ar
    14   12   13      ar
    15   13   14      ar
    16   14   15      ar
    17   15   16      ar
    18   17   18       2
    19   17   19      am
    20   19   20       1
    21   20   21       1
    22   20   27       1
    23   21   22       1
    24   22   23       1
    25   22   24       2
    26   23   26       1
    27   24   25       1
    28   25   26       2
    29   27   28       2
    30   27   29      am
    31   29   30       1
    32   30   31       1
    33   30   38       1
    34   31   32       1
    35   32   33       1
    36   32   37       1
    37   33   34       1
    38   34   35       1
    39   35   36       1
    40   36   37       1
    41   38   39       1
    42   38   40       1
    43   40   41       1
    44   41   42       1
    45   41   45       1
    46   42   43       1
    47   42   44       1
    48   45   46       2
    49   45   47      am
    50   47   48       1
    51   48   49       1
    52   49   50       1
    53   50   51       1
    54    2   52       1
    55    2   53       1
    56    2   54       1
    57    3   55       1
    58    3   56       1
    59    3   57       1
    60    4   58       1
    61    4   59       1
    62    4   60       1
    63    8   61       1
    64    8   62       1
    65    9   63       1
    66   10   64       1
    67   10   65       1
    68   12   66       1
    69   13   67       1
    70   14   68       1
    71   15   69       1
    72   16   70       1
    73   19   71       1
    74   20   72       1
    75   21   73       1
    76   21   74       1
    77   51  113       1
    78   24   75       1
    79   26   76       1
    80   29   77       1
    81   30   78       1
    82   31   79       1
    83   31   80       1
    84   32   81       1
    85   33   82       1
    86   33   83       1
    87   34   84       1
    88   34   85       1
    89   35   86       1
    90   35   87       1
    91   36   88       1
    92   36   89       1
    93   37   90       1
    94   37   91       1
    95   38   92       1
    96   39   93       1
    97   40   94       1
    98   40   95       1
    99   41   96       1
   100   42   97       1
   101   43   98       1
   102   43   99       1
   103   43  100       1
   104   44  101       1
   105   44  102       1
   106   44  103       1
   107   47  104       1
   108   48  105       1
   109   48  106       1
   110   49  107       1
   111   49  108       1
   112   50  109       1
   113   50  110       1
   114   51  111       1
   115   51  112       1
   116   23  114       1
@<TRIPOS>SUBSTRUCTURE
     1 C60350      1 GROUP             4 A     C60     0 **** C60 A 350
