@<TRIPOS>MOLECULE
4bub_ADP_2_ligand
   39    41     1     0     0
SMALL
NO_CHARGES


@<TRIPOS>ATOM
     1 PB          52.6110   -24.1760    34.5940 P.3          1 ADP1486   0.0000
     2 O1B         53.8110   -23.3290    34.9850 O.co2        1 ADP1486   0.0000
     3 O2B         51.7960   -24.7840    35.7200 O.co2        1 ADP1486  -1.0000
     4 O3B         51.8260   -23.5660    33.4590 O.co2        1 ADP1486  -1.0000
     5 PA          53.3610   -25.6510    32.4180 P.3          1 ADP1486   0.0000
     6 O1A         52.0630   -26.2550    31.9350 O.co2        1 ADP1486   0.0000
     7 O2A         53.9020   -24.3800    31.7910 O.co2        1 ADP1486  -1.0000
     8 O3A         53.2630   -25.5050    34.0000 O.3          1 ADP1486   0.0000
     9 O5'         54.4990   -26.7740    32.3880 O.3          1 ADP1486   0.0000
    10 C5'         55.6860   -26.7260    33.1920 C.3          1 ADP1486   0.0000
    11 C4'         56.6460   -27.5560    32.3530 C.3          1 ADP1486   0.0000
    12 O4'         56.4600   -28.9470    32.6680 O.3          1 ADP1486   0.0000
    13 C3'         56.2120   -27.3650    30.8980 C.3          1 ADP1486   0.0000
    14 O3'         57.3050   -27.0950    30.0150 O.3          1 ADP1486   0.0000
    15 C2'         55.4810   -28.6340    30.5030 C.3          1 ADP1486   0.0000
    16 O2'         55.8420   -29.0480    29.1870 O.3          1 ADP1486   0.0000
    17 C1'         55.8540   -29.6610    31.5690 C.3          1 ADP1486   0.0000
    18 N9          54.6160   -30.3940    31.9740 N.pl3        1 ADP1486   0.0000
    19 C8          53.3610   -30.0480    31.6060 C.2          1 ADP1486   0.0000
    20 N7          52.4430   -30.9090    32.1190 N.2          1 ADP1486   0.0000
    21 C5          53.1050   -31.8450    32.8360 C.ar         1 ADP1486   0.0000
    22 C6          52.7330   -33.0530    33.6360 C.ar         1 ADP1486   0.0000
    23 N6          51.4360   -33.4410    33.7750 N.pl3        1 ADP1486   0.0000
    24 N1          53.7390   -33.7580    34.2170 N.ar         1 ADP1486   0.0000
    25 C2          55.0380   -33.3950    34.0900 C.ar         1 ADP1486   0.0000
    26 N3          55.4440   -32.3180    33.3800 N.ar         1 ADP1486   0.0000
    27 C4          54.5430   -31.5090    32.7360 C.ar         1 ADP1486   0.0000
    28 H5'1        55.5362   -27.1369    34.0913 H            1 ADP1486   0.0000
    29 H5'2        56.0146   -25.7882    33.3045 H            1 ADP1486   0.0000
    30 H4'         57.5946   -27.2721    32.4929 H            1 ADP1486   0.0000
    31 H3'         55.5697   -26.5998    30.8543 H            1 ADP1486   0.0000
    32 H5          58.1589   -27.0839    30.5353 H            1 ADP1486   0.0000
    33 H2'         54.4953   -28.4691    30.5365 H            1 ADP1486   0.0000
    34 H7          56.5061   -28.4049    28.8057 H            1 ADP1486   0.0000
    35 H1'         56.5144   -30.3089    31.1894 H            1 ADP1486   0.0000
    36 H9          53.1377   -29.2608    31.0311 H            1 ADP1486   0.0000
    37 H10         51.2119   -34.2524    34.3149 H            1 ADP1486   0.0000
    38 H11         50.7070   -32.9147    33.3372 H            1 ADP1486   0.0000
    39 H12         55.7326   -33.9523    34.5448 H            1 ADP1486   0.0000
@<TRIPOS>BOND
     1    1    2      ar
     2    1    3      ar
     3    1    4      ar
     4    1    8       1
     5    5    6      ar
     6    5    7      ar
     7    5    8       1
     8    5    9       1
     9    9   10       1
    10   10   11       1
    11   11   12       1
    12   11   13       1
    13   12   17       1
    14   13   14       1
    15   13   15       1
    16   15   16       1
    17   15   17       1
    18   17   18       1
    19   18   19       1
    20   18   27       1
    21   19   20       2
    22   20   21       1
    23   21   22      ar
    24   21   27      ar
    25   22   23       1
    26   22   24      ar
    27   24   25      ar
    28   25   26      ar
    29   26   27      ar
    30   25   39       1
    31   23   38       1
    32   23   37       1
    33   10   28       1
    34   10   29       1
    35   11   30       1
    36   13   31       1
    37   14   32       1
    38   15   33       1
    39   16   34       1
    40   17   35       1
    41   19   36       1
@<TRIPOS>SUBSTRUCTURE
     1 ADP1486     1 GROUP             4 B     ADP     0 **** ADP B1486
