@<TRIPOS>MOLECULE
1bkg_MAE_1_ligand
   10     9     1     0     0
SMALL
NO_CHARGES


@<TRIPOS>ATOM
     1 C1          65.2000    49.4830     2.0400 C.2          1 MAE414   0.0000
     2 O1          65.9150    48.8470     1.2390 O.co2        1 MAE414   0.0000
     3 O2          63.9580    49.5230     1.9210 O.co2        1 MAE414  -1.0000
     4 C2          65.8490    50.2720     3.2080 C.2          1 MAE414   0.0000
     5 C3          67.1180    50.2240     3.6150 C.2          1 MAE414   0.0000
     6 C4          68.2150    49.3690     3.0070 C.2          1 MAE414   0.0000
     7 O3          68.8700    49.8010     2.0430 O.co2        1 MAE414   0.0000
     8 O4          68.4520    48.2550     3.5030 O.co2        1 MAE414  -1.0000
     9 H1          65.2455    50.8880     3.7143 H            1 MAE414   0.0000
    10 H2          67.3695    50.8033     4.3904 H            1 MAE414   0.0000
@<TRIPOS>BOND
     1    1    2      ar
     2    1    3      ar
     3    1    4       1
     4    4    5       2
     5    5    6       1
     6    6    7      ar
     7    6    8      ar
     8    5   10       1
     9    4    9       1
@<TRIPOS>SUBSTRUCTURE
     1 MAE414      1 GROUP             4 A     MAE     0 **** MAE A 414
