@<TRIPOS>MOLECULE
4rh1_0TT_1_ligand
   62    65     1     0     0
SMALL
NO_CHARGES


@<TRIPOS>ATOM
     1 O8         -19.3960    -3.8200    26.1640 O.3          1 0TT409   0.0000
     2 C6         -20.0150    -2.6300    26.6610 C.3          1 0TT409   0.0000
     3 C5         -21.2930    -2.2810    25.9310 C.3          1 0TT409   0.0000
     4 O7         -21.0130    -2.1610    24.5200 O.3          1 0TT409   0.0000
     5 C4         -22.4310    -3.3080    26.0210 C.3          1 0TT409   0.0000
     6 O9         -23.6680    -2.5860    25.9110 O.3          1 0TT409   0.0000
     7 C3         -22.1420    -4.1810    24.8430 C.3          1 0TT409   0.0000
     8 C2         -21.7960    -3.1210    23.7860 C.3          1 0TT409   0.0000
     9 N3         -21.0690    -3.5540    22.5910 N.am         1 0TT409   0.0000
    10 CJ         -21.5740    -3.1810    21.2630 C.3          1 0TT409   0.0000
    11 CK         -19.8380    -4.1770    22.7220 C.2          1 0TT409   0.0000
    12 O5         -19.3700    -4.6230    23.7720 O.2          1 0TT409   0.0000
    13 N4         -19.1500    -4.4310    21.5280 N.am         1 0TT409   0.0000
    14 CL         -19.2780    -3.7140    20.3600 C.2          1 0TT409   0.0000
    15 O6         -18.5340    -3.9390    19.4150 O.2          1 0TT409   0.0000
    16 CI         -20.4750    -2.7490    20.2800 C.3          1 0TT409   0.0000
    17 C1         -21.0450    -2.8220    18.8440 C.3          1 0TT409   0.0000
    18 CH         -20.0690    -1.2500    20.5060 C.3          1 0TT409   0.0000
    19 CF         -19.7290    -0.6970    21.8670 C.2          1 0TT409   0.0000
    20 CE         -20.5390     0.1670    22.5260 C.2          1 0TT409   0.0000
    21 CG         -18.4640    -1.0530    22.5060 C.2          1 0TT409   0.0000
    22 O4         -17.6470    -1.8130    22.0290 O.2          1 0TT409   0.0000
    23 N2         -18.2120    -0.4920    23.7450 N.pl3        1 0TT409   0.0000
    24 CB         -19.0330     0.3740    24.4210 C.2          1 0TT409   0.0000
    25 O3         -18.7200     0.8210    25.5250 O.2          1 0TT409   0.0000
    26 N1         -20.2150     0.7050    23.7800 N.pl3        1 0TT409   0.0000
    27 CD         -21.1090     1.6200    24.5050 C.3          1 0TT409   0.0000
    28 OB         -22.1660     0.7660    24.9140 O.3          1 0TT409   0.0000
    29 CM         -21.7210     2.7660    23.7500 C.3          1 0TT409   0.0000
    30 CA         -23.2190     2.4810    23.8910 C.3          1 0TT409   0.0000
    31 O1         -23.9370     3.6880    23.9670 O.3          1 0TT409   0.0000
    32 C9         -23.2860     1.5980    25.1390 C.3          1 0TT409   0.0000
    33 C8         -24.4870     0.7190    25.3490 C.3          1 0TT409   0.0000
    34 OA         -24.5190     0.3350    26.7420 O.3          1 0TT409   0.0000
    35 H1         -19.6048    -3.9231    25.1915 H            1 0TT409   0.0000
    36 H2         -19.3725    -1.8704    26.5602 H            1 0TT409   0.0000
    37 H3         -20.2266    -2.7612    27.6295 H            1 0TT409   0.0000
    38 H4         -21.6264    -1.4008    26.2688 H            1 0TT409   0.0000
    39 H5         -22.3869    -3.8250    26.8758 H            1 0TT409   0.0000
    40 H6         -23.5511    -1.6656    26.2842 H            1 0TT409   0.0000
    41 H7         -22.9418    -4.7195    24.5776 H            1 0TT409   0.0000
    42 H8         -21.3710    -4.7933    25.0178 H            1 0TT409   0.0000
    43 H9         -22.6442    -2.6784    23.4950 H            1 0TT409   0.0000
    44 HJ1        -22.2159    -2.4219    21.3716 H            1 0TT409   0.0000
    45 HJ2        -22.0521    -3.9689    20.8749 H            1 0TT409   0.0000
    46 H12        -18.5106    -5.1998    21.5241 H            1 0TT409   0.0000
    47 H13        -20.3406    -2.5433    18.1912 H            1 0TT409   0.0000
    48 H14        -21.3307    -3.7596    18.6461 H            1 0TT409   0.0000
    49 H15        -21.8322    -2.2102    18.7663 H            1 0TT409   0.0000
    50 HH1        -20.8333    -0.7015    20.1668 H            1 0TT409   0.0000
    51 HH2        -19.2648    -1.0912    19.9333 H            1 0TT409   0.0000
    52 HE         -21.4041     0.4320    22.1002 H            1 0TT409   0.0000
    53 H19        -17.3513    -0.7410    24.1891 H            1 0TT409   0.0000
    54 HD         -20.6368     1.9716    25.3134 H            1 0TT409   0.0000
    55 HM1        -21.4393     2.7600    22.7905 H            1 0TT409   0.0000
    56 HM2        -21.4782     3.6436    24.1633 H            1 0TT409   0.0000
    57 HA         -23.5327     1.9584    23.0983 H            1 0TT409   0.0000
    58 H24        -24.7602     3.5520    24.5182 H            1 0TT409   0.0000
    59 H25        -23.1315     2.1562    25.9542 H            1 0TT409   0.0000
    60 H26        -24.4164    -0.0958    24.7736 H            1 0TT409   0.0000
    61 H27        -25.3200     1.2206    25.1157 H            1 0TT409   0.0000
    62 H28        -25.4671     0.1948    27.0274 H            1 0TT409   0.0000
@<TRIPOS>BOND
     1    1    2       1
     2    2    3       1
     3    3    4       1
     4    3    5       1
     5    4    8       1
     6    5    6       1
     7    5    7       1
     8    7    8       1
     9    8    9       1
    10    9   10       1
    11    9   11      am
    12   10   16       1
    13   11   12       2
    14   11   13      am
    15   13   14      am
    16   14   15       2
    17   14   16       1
    18   16   17       1
    19   16   18       1
    20   18   19       1
    21   19   20       2
    22   19   21       1
    23   20   26       1
    24   21   22       2
    25   21   23       1
    26   23   24       1
    27   24   25       2
    28   24   26       1
    29   26   27       1
    30   27   28       1
    31   27   29       1
    32   28   32       1
    33   29   30       1
    34   30   31       1
    35   30   32       1
    36   32   33       1
    37   33   34       1
    38    1   35       1
    39    2   36       1
    40    2   37       1
    41    3   38       1
    42    5   39       1
    43    6   40       1
    44    7   41       1
    45    7   42       1
    46    8   43       1
    47   10   44       1
    48   10   45       1
    49   13   46       1
    50   17   47       1
    51   17   48       1
    52   17   49       1
    53   18   50       1
    54   18   51       1
    55   20   52       1
    56   23   53       1
    57   27   54       1
    58   29   55       1
    59   29   56       1
    60   30   57       1
    61   31   58       1
    62   32   59       1
    63   33   60       1
    64   33   61       1
    65   34   62       1
@<TRIPOS>SUBSTRUCTURE
     1 0TT409      1 GROUP             4 A     0TT     0 **** 0TT A 409
