@<TRIPOS>MOLECULE
5fyh_FUM_2_ligand
   10     9     1     0     0
SMALL
NO_CHARGES


@<TRIPOS>ATOM
     1 O1         -40.9950   -54.8220     3.5930 O.co2        1 FUM1354   0.0000
     2 C2         -40.9930   -54.9100     2.3650 C.2          1 FUM1354   0.0000
     3 O3         -39.8970   -54.9720     1.6730 O.co2        1 FUM1354  -1.0000
     4 C4         -42.2390   -54.9580     1.5550 C.2          1 FUM1354   0.0000
     5 C5         -43.5170   -54.9270     1.9340 C.2          1 FUM1354   0.0000
     6 C6         -44.7440   -54.9730     1.0980 C.2          1 FUM1354   0.0000
     7 O7         -45.8660   -54.9100     1.6160 O.co2        1 FUM1354   0.0000
     8 O8         -44.5620   -55.0670    -0.1940 O.co2        1 FUM1354  -1.0000
     9 H1         -42.0955   -55.0241     0.5676 H            1 FUM1354   0.0000
    10 H2         -43.6712   -54.8639     2.9200 H            1 FUM1354   0.0000
@<TRIPOS>BOND
     1    1    2      ar
     2    2    3      ar
     3    2    4       1
     4    4    5       2
     5    5    6       1
     6    6    7      ar
     7    6    8      ar
     8    5   10       1
     9    4    9       1
@<TRIPOS>SUBSTRUCTURE
     1 FUM1354     1 GROUP             4 B     FUM     0 **** FUM B1354
