@<TRIPOS>MOLECULE
4gn8_ASO_2_ligand
   23    23     1     0     0
SMALL
NO_CHARGES


@<TRIPOS>ATOM
     1 C1         -38.2500   -27.4040    24.5550 C.3          1 ASO305   0.0000
     2 C2         -37.6940   -28.6120    23.8370 C.3          1 ASO305   0.0000
     3 C3         -38.0780   -28.5350    22.3740 C.3          1 ASO305   0.0000
     4 C4         -39.5960   -28.5210    22.3250 C.3          1 ASO305   0.0000
     5 C5         -40.0810   -27.2860    23.0540 C.3          1 ASO305   0.0000
     6 C6         -41.6010   -27.2450    23.0250 C.3          1 ASO305   0.0000
     7 O2         -36.2660   -28.6500    23.9830 O.3          1 ASO305   0.0000
     8 O3         -37.5830   -29.6580    21.6410 O.3          1 ASO305   0.0000
     9 O4         -40.0590   -28.4520    20.9710 O.3          1 ASO305   0.0000
    10 O5         -39.6860   -27.3630    24.4400 O.3          1 ASO305   0.0000
    11 O6         -42.0210   -27.2330    21.6530 O.3          1 ASO305   0.0000
    12 H1         -37.8640   -26.5748    24.1508 H            1 ASO305   0.0000
    13 H2         -37.9988   -27.4517    25.5218 H            1 ASO305   0.0000
    14 H3         -38.0868   -29.4405    24.2361 H            1 ASO305   0.0000
    15 H4         -37.7208   -27.6898    21.9765 H            1 ASO305   0.0000
    16 H5         -39.9583   -29.3415    22.7672 H            1 ASO305   0.0000
    17 H6         -39.7034   -26.4624    22.6307 H            1 ASO305   0.0000
    18 H7         -41.9266   -26.4197    23.4863 H            1 ASO305   0.0000
    19 H8         -41.9706   -28.0521    23.4855 H            1 ASO305   0.0000
    20 H9         -35.8605   -29.0892    23.1813 H            1 ASO305   0.0000
    21 H10        -37.0815   -30.2642    22.2583 H            1 ASO305   0.0000
    22 H11        -40.6191   -29.2554    20.7689 H            1 ASO305   0.0000
    23 H12        -42.1440   -28.1727    21.3338 H            1 ASO305   0.0000
@<TRIPOS>BOND
     1    1    2       1
     2    1   10       1
     3    2    3       1
     4    2    7       1
     5    3    4       1
     6    3    8       1
     7    4    5       1
     8    4    9       1
     9    5    6       1
    10    5   10       1
    11    6   11       1
    12    1   12       1
    13    1   13       1
    14    2   14       1
    15    3   15       1
    16    4   16       1
    17    5   17       1
    18    6   18       1
    19    6   19       1
    20    7   20       1
    21    8   21       1
    22    9   22       1
    23   11   23       1
@<TRIPOS>SUBSTRUCTURE
     1 ASO305      1 GROUP             4 A     ASO     0 **** ASO A 305
