@<TRIPOS>MOLECULE
4x3l_MTA_2_ligand
   35    37     1     0     0
SMALL
NO_CHARGES


@<TRIPOS>ATOM
     1 CS          20.0460    21.8950    -4.5030 C.3          1 MTA301   0.0000
     2 S5'         19.9430    20.2140    -3.9510 S.3          1 MTA301   0.0000
     3 C5'         19.3620    19.1620    -5.3400 C.3          1 MTA301   0.0000
     4 C4'         17.8710    18.8370    -5.3960 C.3          1 MTA301   0.0000
     5 O4'         17.5000    18.1330    -4.2400 O.3          1 MTA301   0.0000
     6 C2'         15.7880    19.5000    -4.9080 C.3          1 MTA301   0.0000
     7 O2'         15.1350    18.8770    -5.9940 O.3          1 MTA301   0.0000
     8 C3'         17.0860    20.0120    -5.3770 C.3          1 MTA301   0.0000
     9 O3'         16.9640    20.5730    -6.6680 O.3          1 MTA301   0.0000
    10 C1'         16.1660    18.5280    -3.9410 C.3          1 MTA301   0.0000
    11 N9          16.1600    19.0260    -2.5560 N.pl3        1 MTA301   0.0000
    12 C8          17.2390    19.1930    -1.7120 C.2          1 MTA301   0.0000
    13 N7          16.7780    19.6440    -0.5550 N.2          1 MTA301   0.0000
    14 C5          15.3780    19.7730    -0.6250 C.ar         1 MTA301   0.0000
    15 C6          14.3510    20.1950     0.2810 C.ar         1 MTA301   0.0000
    16 N6          14.6170    20.6240     1.6150 N.pl3        1 MTA301   0.0000
    17 N1          13.0480    20.1930    -0.1750 N.ar         1 MTA301   0.0000
    18 C2          12.7210    19.7890    -1.4200 C.ar         1 MTA301   0.0000
    19 N3          13.6590    19.3900    -2.2940 N.ar         1 MTA301   0.0000
    20 C4          15.0050    19.3700    -1.8990 C.ar         1 MTA301   0.0000
    21 HS1         20.3619    22.4739    -3.7513 H            1 MTA301   0.0000
    22 HS2         20.6907    21.9567    -5.2650 H            1 MTA301   0.0000
    23 HS3         19.1435    22.2028    -4.8042 H            1 MTA301   0.0000
    24 H5'1        19.8568    18.2946    -5.2872 H            1 MTA301   0.0000
    25 H5'2        19.5996    19.6301    -6.1911 H            1 MTA301   0.0000
    26 H4'         17.6650    18.2963    -6.2116 H            1 MTA301   0.0000
    27 H2'         15.2280    20.2242    -4.5055 H            1 MTA301   0.0000
    28 H8          14.2642    19.3369    -6.1676 H            1 MTA301   0.0000
    29 H3'         17.4594    20.6793    -4.7326 H            1 MTA301   0.0000
    30 H10         16.4045    21.4005    -6.6204 H            1 MTA301   0.0000
    31 H1'         15.5606    17.7353    -4.0120 H            1 MTA301   0.0000
    32 H12         18.1962    19.0071    -1.9339 H            1 MTA301   0.0000
    33 H13         13.8640    20.9090     2.2081 H            1 MTA301   0.0000
    34 H14         15.5565    20.6398     1.9572 H            1 MTA301   0.0000
    35 H15         11.7603    19.7867    -1.6976 H            1 MTA301   0.0000
@<TRIPOS>BOND
     1    1    2       1
     2    2    3       1
     3    3    4       1
     4    4    5       1
     5    4    8       1
     6    5   10       1
     7    6    7       1
     8    6    8       1
     9    6   10       1
    10    8    9       1
    11   10   11       1
    12   11   12       1
    13   11   20       1
    14   12   13       2
    15   13   14       1
    16   14   15      ar
    17   14   20      ar
    18   15   16       1
    19   15   17      ar
    20   17   18      ar
    21   18   19      ar
    22   19   20      ar
    23    1   21       1
    24    1   22       1
    25    1   23       1
    26    3   24       1
    27    3   25       1
    28    4   26       1
    29    6   27       1
    30    7   28       1
    31    8   29       1
    32    9   30       1
    33   10   31       1
    34   12   32       1
    35   16   33       1
    36   16   34       1
    37   18   35       1
@<TRIPOS>SUBSTRUCTURE
     1 MTA301      1 GROUP             4 B     MTA     0 **** MTA B 301
