@<TRIPOS>MOLECULE
2bqz_SAH_1_ligand
   46    48     1     0     0
SMALL
NO_CHARGES


@<TRIPOS>ATOM
     1 N            4.7090     4.7560    -7.3720 N.4          1 SAH1354   1.0000
     2 CA           3.7010     3.7630    -7.7760 C.3          1 SAH1354   0.0000
     3 CB           2.5900     3.6860    -6.7340 C.3          1 SAH1354   0.0000
     4 CG           3.0050     2.8000    -5.5680 C.3          1 SAH1354   0.0000
     5 SD           3.0450     1.0590    -6.0700 S.3          1 SAH1354   0.0000
     6 C            3.1210     4.0090    -9.1710 C.2          1 SAH1354   0.0000
     7 O            2.3830     3.1100    -9.5890 O.2          1 SAH1354   0.0000
     8 C5'          4.6910     0.6000    -5.4170 C.3          1 SAH1354   0.0000
     9 C4'          5.8740     1.0530    -6.2570 C.3          1 SAH1354   0.0000
    10 O4'          6.0860     2.4320    -6.0560 O.3          1 SAH1354   0.0000
    11 C3'          7.1880     0.3570    -5.8870 C.3          1 SAH1354   0.0000
    12 O3'          7.3090    -0.9550    -6.4000 O.3          1 SAH1354   0.0000
    13 C2'          8.1580     1.3830    -6.4200 C.3          1 SAH1354   0.0000
    14 O2'          8.2930     1.2820    -7.8350 O.3          1 SAH1354   0.0000
    15 C1'          7.4800     2.6810    -6.0460 C.3          1 SAH1354   0.0000
    16 N9           7.8530     3.1600    -4.6950 N.pl3        1 SAH1354   0.0000
    17 C8           7.0730     3.2050    -3.5650 C.2          1 SAH1354   0.0000
    18 N7           7.7600     3.7420    -2.5510 N.2          1 SAH1354   0.0000
    19 C5           9.0060     4.0650    -3.0300 C.ar         1 SAH1354   0.0000
    20 C6          10.1010     4.6390    -2.4120 C.ar         1 SAH1354   0.0000
    21 N6          10.1290     5.0130    -1.1290 N.pl3        1 SAH1354   0.0000
    22 N1          11.2100     4.8230    -3.2110 N.ar         1 SAH1354   0.0000
    23 C2          11.2330     4.4520    -4.5400 C.ar         1 SAH1354   0.0000
    24 N3          10.1550     3.8860    -5.1720 N.ar         1 SAH1354   0.0000
    25 C4           9.0600     3.7090    -4.3850 C.ar         1 SAH1354   0.0000
    26 H1           5.6038     4.4864    -7.7279 H            1 SAH1354   0.0000
    27 H2           4.4602     5.6521    -7.7396 H            1 SAH1354   0.0000
    28 HA           4.1531     2.8712    -7.7950 H            1 SAH1354   0.0000
    29 HB1          1.7680     3.3062    -7.1583 H            1 SAH1354   0.0000
    30 HB2          2.3949     4.6059    -6.3938 H            1 SAH1354   0.0000
    31 HG1          2.3493     2.9115    -4.8213 H            1 SAH1354   0.0000
    32 HG2          3.9151     3.0728    -5.2560 H            1 SAH1354   0.0000
    33 H8           3.3232     4.8319    -9.7021 H            1 SAH1354   0.0000
    34 H5'1         4.7274    -0.3967    -5.3446 H            1 SAH1354   0.0000
    35 H5'2         4.7858     1.0039    -4.5071 H            1 SAH1354   0.0000
    36 H4'          5.6745     0.8879    -7.2229 H            1 SAH1354   0.0000
    37 H3'          7.2672     0.3236    -4.8907 H            1 SAH1354   0.0000
    38 H13          7.4145    -1.6003    -5.6434 H            1 SAH1354   0.0000
    39 H2'          9.0471     1.3018    -5.9696 H            1 SAH1354   0.0000
    40 H15          8.9402     1.9724    -8.1582 H            1 SAH1354   0.0000
    41 H1'          7.7006     3.3825    -6.7237 H            1 SAH1354   0.0000
    42 H17          6.1280     2.8828    -3.5088 H            1 SAH1354   0.0000
    43 H18         10.9566     5.4231    -0.7457 H            1 SAH1354   0.0000
    44 H19          9.3224     4.8827    -0.5525 H            1 SAH1354   0.0000
    45 H20         12.0710     4.6021    -5.0646 H            1 SAH1354   0.0000
    46 H21          4.7480     4.8043    -6.3739 H            1 SAH1354   0.0000
@<TRIPOS>BOND
     1    1    2       1
     2    2    3       1
     3    2    6       1
     4    3    4       1
     5    4    5       1
     6    5    8       1
     7    6    7       2
     8    8    9       1
     9    9   10       1
    10    9   11       1
    11   10   15       1
    12   11   12       1
    13   11   13       1
    14   13   14       1
    15   13   15       1
    16   15   16       1
    17   16   17       1
    18   16   25       1
    19   17   18       2
    20   18   19       1
    21   19   20      ar
    22   19   25      ar
    23   20   21       1
    24   20   22      ar
    25   22   23      ar
    26   23   24      ar
    27   24   25      ar
    28    1   26       1
    29    1   27       1
    30    2   28       1
    31    3   29       1
    32    3   30       1
    33    4   31       1
    34    4   32       1
    35    6   33       1
    36    8   34       1
    37    8   35       1
    38    9   36       1
    39   11   37       1
    40   12   38       1
    41   13   39       1
    42   14   40       1
    43   15   41       1
    44   17   42       1
    45   21   43       1
    46   21   44       1
    47   23   45       1
    48    1   46       1
@<TRIPOS>SUBSTRUCTURE
     1 SAH1354     1 GROUP             4 A     SAH     0 **** SAH A1354
