@<TRIPOS>MOLECULE
4r20_AER_2_ligand
   59    63     1     0     0
SMALL
NO_CHARGES


@<TRIPOS>ATOM
     1 C1          48.1430     1.8570    90.8860 C.3          1 AER602   0.0000
     2 C2          49.1880     1.3500    89.8730 C.3          1 AER602   0.0000
     3 C3          49.4270     2.3450    88.7150 C.3          1 AER602   0.0000
     4 O3          50.2990     1.8160    87.6780 O.3          1 AER602   0.0000
     5 C4          49.8640     3.7030    89.2500 C.3          1 AER602   0.0000
     6 C5          48.8030     4.1940    90.2170 C.2          1 AER602   0.0000
     7 C6          48.3270     5.4310    90.0500 C.2          1 AER602   0.0000
     8 C7          47.4070     6.1130    91.0320 C.3          1 AER602   0.0000
     9 C8          47.1230     5.3120    92.2870 C.3          1 AER602   0.0000
    10 C9          47.0550     3.8320    91.9740 C.3          1 AER602   0.0000
    11 C10         48.3770     3.3040    91.3700 C.3          1 AER602   0.0000
    12 C11         46.5340     3.0310    93.1940 C.3          1 AER602   0.0000
    13 C12         45.2780     3.5710    93.9070 C.3          1 AER602   0.0000
    14 C13         45.4090     5.0550    94.1880 C.3          1 AER602   0.0000
    15 C14         45.7500     5.6580    92.8300 C.3          1 AER602   0.0000
    16 C15         45.3790     7.1300    92.9280 C.3          1 AER602   0.0000
    17 C16         44.0100     6.9980    93.5520 C.3          1 AER602   0.0000
    18 C17         44.2040     5.9310    94.6440 C.3          1 AER602   0.0000
    19 C18         46.5010     5.2430    95.2480 C.3          1 AER602   0.0000
    20 C19         49.5360     3.3370    92.3740 C.3          1 AER602   0.0000
    21 C20         42.9110     5.3310    95.1330 C.ar         1 AER602   0.0000
    22 C21         41.6570     5.8330    94.7550 C.ar         1 AER602   0.0000
    23 N22         40.4910     5.3550    95.2100 N.ar         1 AER602   0.0000
    24 C23         40.5620     4.3650    96.0940 C.ar         1 AER602   0.0000
    25 C24         41.7620     3.8460    96.5350 C.ar         1 AER602   0.0000
    26 C25         42.9500     4.3260    96.0650 C.ar         1 AER602   0.0000
    27 H1          48.1610     1.2534    91.6831 H            1 AER602   0.0000
    28 H2          47.2418     1.8129    90.4548 H            1 AER602   0.0000
    29 H3          48.8679     0.4837    89.4896 H            1 AER602   0.0000
    30 H4          50.0532     1.2030    90.3523 H            1 AER602   0.0000
    31 H5          48.5365     2.4891    88.2834 H            1 AER602   0.0000
    32 H6          49.7488     1.3472    86.9869 H            1 AER602   0.0000
    33 H7          49.9587     4.3504    88.4938 H            1 AER602   0.0000
    34 H8          50.7398     3.6142    89.7245 H            1 AER602   0.0000
    35 H9          48.5956     5.9331    89.2279 H            1 AER602   0.0000
    36 H10         46.5372     6.2925    90.5724 H            1 AER602   0.0000
    37 H11         47.8261     6.9797    91.3027 H            1 AER602   0.0000
    38 H12         47.8241     5.4889    92.9778 H            1 AER602   0.0000
    39 H13         46.3631     3.7308    91.2592 H            1 AER602   0.0000
    40 H14         47.2715     2.9966    93.8685 H            1 AER602   0.0000
    41 H15         46.3265     2.1047    92.8794 H            1 AER602   0.0000
    42 H16         45.1580     3.0837    94.7719 H            1 AER602   0.0000
    43 H17         44.4798     3.4176    93.3244 H            1 AER602   0.0000
    44 H18         45.0974     5.2582    92.1864 H            1 AER602   0.0000
    45 H19         45.3391     7.5658    92.0288 H            1 AER602   0.0000
    46 H20         46.0102     7.6359    93.5159 H            1 AER602   0.0000
    47 H21         43.3379     6.6970    92.8755 H            1 AER602   0.0000
    48 H22         43.7154     7.8663    93.9510 H            1 AER602   0.0000
    49 H23         44.5527     6.4417    95.4299 H            1 AER602   0.0000
    50 H24         46.6054     6.2168    95.4500 H            1 AER602   0.0000
    51 H25         46.2433     4.7553    96.0821 H            1 AER602   0.0000
    52 H26         47.3664     4.8794    94.9032 H            1 AER602   0.0000
    53 H27         49.6823     4.2766    92.6834 H            1 AER602   0.0000
    54 H28         49.3138     2.7584    93.1588 H            1 AER602   0.0000
    55 H29         50.3676     2.9975    91.9344 H            1 AER602   0.0000
    56 H30         41.6317     6.5938    94.1066 H            1 AER602   0.0000
    57 H31         39.7117     3.9809    96.4539 H            1 AER602   0.0000
    58 H32         41.7612     3.1072    97.2090 H            1 AER602   0.0000
    59 H33         43.8207     3.9567    96.3898 H            1 AER602   0.0000
@<TRIPOS>BOND
     1    1    2       1
     2    1   11       1
     3    2    3       1
     4    3    4       1
     5    3    5       1
     6    5    6       1
     7    6    7       2
     8    6   11       1
     9    7    8       1
    10    8    9       1
    11    9   10       1
    12    9   15       1
    13   10   11       1
    14   10   12       1
    15   11   20       1
    16   12   13       1
    17   13   14       1
    18   14   15       1
    19   14   18       1
    20   14   19       1
    21   15   16       1
    22   16   17       1
    23   17   18       1
    24   18   21       1
    25   21   22      ar
    26   21   26      ar
    27   22   23      ar
    28   23   24      ar
    29   24   25      ar
    30   25   26      ar
    31    1   27       1
    32    1   28       1
    33    2   29       1
    34    2   30       1
    35    3   31       1
    36    4   32       1
    37    5   33       1
    38    5   34       1
    39    7   35       1
    40    8   36       1
    41    8   37       1
    42    9   38       1
    43   10   39       1
    44   12   40       1
    45   12   41       1
    46   13   42       1
    47   13   43       1
    48   15   44       1
    49   16   45       1
    50   16   46       1
    51   17   47       1
    52   17   48       1
    53   18   49       1
    54   19   50       1
    55   19   51       1
    56   19   52       1
    57   20   53       1
    58   20   54       1
    59   20   55       1
    60   22   56       1
    61   24   57       1
    62   25   58       1
    63   26   59       1
@<TRIPOS>SUBSTRUCTURE
     1 AER602      1 GROUP             4 B     AER     0 **** AER B 602
