@<TRIPOS>MOLECULE
4jtc_NAP_2_ligand
   73    77     1     0     0
SMALL
NO_CHARGES


@<TRIPOS>ATOM
     1 PA          19.1340    37.8330   221.5350 P.3          1 NAP1001   0.0000
     2 O1A         19.5350    37.2590   222.8080 O.co2        1 NAP1001   0.0000
     3 O2A         17.9180    38.8430   221.4170 O.co2        1 NAP1001  -1.0000
     4 O5B         20.2350    37.8460   220.3240 O.3          1 NAP1001   0.0000
     5 C5B         19.7030    37.1740   219.1570 C.3          1 NAP1001   0.0000
     6 C4B         20.8090    37.0800   218.0940 C.3          1 NAP1001   0.0000
     7 O4B         21.4780    35.8300   218.5310 O.3          1 NAP1001   0.0000
     8 C3B         20.3560    36.7220   216.6770 C.3          1 NAP1001   0.0000
     9 O3B         20.8670    37.7120   215.7750 O.3          1 NAP1001   0.0000
    10 C2B         20.8070    35.2740   216.3150 C.3          1 NAP1001   0.0000
    11 O2B         21.7090    34.9540   215.1700 O.3          1 NAP1001   0.0000
    12 C1B         21.2040    34.6720   217.6380 C.3          1 NAP1001   0.0000
    13 N9A         20.0390    33.7620   217.9490 N.pl3        1 NAP1001   0.0000
    14 C8A         18.7770    34.0910   218.3940 C.2          1 NAP1001   0.0000
    15 N7A         18.0270    33.0400   218.5260 N.2          1 NAP1001   0.0000
    16 C5A         18.7270    31.9470   218.1790 C.ar         1 NAP1001   0.0000
    17 C6A         18.4460    30.5490   218.1100 C.ar         1 NAP1001   0.0000
    18 N6A         17.1950    30.0580   218.4550 N.pl3        1 NAP1001   0.0000
    19 N1A         19.4190    29.7120   217.7000 N.ar         1 NAP1001   0.0000
    20 C2A         20.6330    30.1630   217.3580 C.ar         1 NAP1001   0.0000
    21 N3A         20.9410    31.4620   217.4050 N.ar         1 NAP1001   0.0000
    22 C4A         20.0350    32.3830   217.8030 C.ar         1 NAP1001   0.0000
    23 O3          20.0590    39.0080   222.2120 O.3          1 NAP1001   0.0000
    24 PN          19.7670    40.5200   221.4030 P.3          1 NAP1001   0.0000
    25 O1N         19.6660    40.4090   219.8480 O.co2        1 NAP1001   0.0000
    26 O2N         20.9300    41.4560   221.7420 O.co2        1 NAP1001  -1.0000
    27 O5D         18.3940    41.2140   221.8810 O.3          1 NAP1001   0.0000
    28 C5D         18.3590    42.3430   221.0450 C.3          1 NAP1001   0.0000
    29 C4D         17.1580    43.2170   221.2200 C.3          1 NAP1001   0.0000
    30 O4D         17.0400    43.7860   222.5620 O.3          1 NAP1001   0.0000
    31 C3D         17.2750    44.3400   220.2130 C.3          1 NAP1001   0.0000
    32 O3D         16.3170    44.1830   219.2460 O.3          1 NAP1001   0.0000
    33 C2D         17.1290    45.6150   220.9950 C.3          1 NAP1001   0.0000
    34 O2D         15.9770    46.3110   220.5440 O.3          1 NAP1001   0.0000
    35 C1D         17.0440    45.2420   222.4800 C.3          1 NAP1001   0.0000
    36 N1N         18.2520    45.8500   223.1300 N.ar         1 NAP1001   1.0000
    37 C2N         18.0880    46.9080   223.9460 C.ar         1 NAP1001   0.0000
    38 C3N         19.2160    47.5300   224.5610 C.ar         1 NAP1001   0.0000
    39 C7N         19.0540    48.6960   225.4640 C.2          1 NAP1001   0.0000
    40 O7N         20.0262    49.2257   225.9749 O.2          1 NAP1001   0.0000
    41 N7N         17.8282    49.1722   225.7245 N.am         1 NAP1001   0.0000
    42 C4N         20.5180    47.0090   224.2900 C.ar         1 NAP1001   0.0000
    43 C5N         20.6540    45.9030   223.4370 C.ar         1 NAP1001   0.0000
    44 C6N         19.4980    45.3440   222.8700 C.ar         1 NAP1001   0.0000
    45 P2B         23.2640    35.4470   215.2020 P.3          1 NAP1001   0.0000
    46 O1X         24.0130    34.9080   216.3700 O.co2        1 NAP1001   0.0000
    47 O2X         23.9220    34.9460   213.8640 O.co2        1 NAP1001  -1.0000
    48 O3X         23.3670    37.0600   215.1700 O.co2        1 NAP1001  -1.0000
    49 H5B1        18.9300    37.6935   218.7930 H            1 NAP1001   0.0000
    50 H5B2        19.3985    36.2551   219.4077 H            1 NAP1001   0.0000
    51 H4B         21.4236    37.8686   218.1111 H            1 NAP1001   0.0000
    52 H3B         19.3570    36.7564   216.6483 H            1 NAP1001   0.0000
    53 H5          21.7676    37.4291   215.4450 H            1 NAP1001   0.0000
    54 H2B         19.9530    34.8070   216.0855 H            1 NAP1001   0.0000
    55 H1B         22.0359    34.1286   217.5253 H            1 NAP1001   0.0000
    56 H8A         18.4762    35.0242   218.5909 H            1 NAP1001   0.0000
    57 H6A1        17.0111    29.0765   218.4023 H            1 NAP1001   0.0000
    58 H6A2        16.4772    30.6857   218.7564 H            1 NAP1001   0.0000
    59 H2A         21.3281    29.5091   217.0592 H            1 NAP1001   0.0000
    60 H5D1        18.3787    42.0280   220.0961 H            1 NAP1001   0.0000
    61 H5D2        19.1734    42.8928   221.2307 H            1 NAP1001   0.0000
    62 H4D         16.3359    42.6842   221.0191 H            1 NAP1001   0.0000
    63 H3D         18.1806    44.3126   219.7898 H            1 NAP1001   0.0000
    64 H16         16.4490    43.3053   218.7854 H            1 NAP1001   0.0000
    65 H2D         17.9365    46.1857   220.8458 H            1 NAP1001   0.0000
    66 H18         15.8765    47.1603   221.0622 H            1 NAP1001   0.0000
    67 H1D         16.2084    45.6144   222.8839 H            1 NAP1001   0.0000
    68 H2N         17.1691    47.2608   224.1226 H            1 NAP1001   0.0000
    69 H7N1        17.7156    49.9555   226.3358 H            1 NAP1001   0.0000
    70 H7N2        17.0265    48.7440   225.3075 H            1 NAP1001   0.0000
    71 H4N         21.3255    47.4287   224.7045 H            1 NAP1001   0.0000
    72 H5N         21.5562    45.5208   223.2371 H            1 NAP1001   0.0000
    73 H6N         19.5864    44.5561   222.2606 H            1 NAP1001   0.0000
@<TRIPOS>BOND
     1    1    2      ar
     2    1    3      ar
     3    1    4       1
     4    1   23       1
     5    4    5       1
     6    5    6       1
     7    6    7       1
     8    6    8       1
     9    7   12       1
    10    8    9       1
    11    8   10       1
    12   10   11       1
    13   10   12       1
    14   11   45       1
    15   12   13       1
    16   13   14       1
    17   13   22       1
    18   14   15       2
    19   15   16       1
    20   16   17      ar
    21   16   22      ar
    22   17   18       1
    23   17   19      ar
    24   19   20      ar
    25   20   21      ar
    26   21   22      ar
    27   23   24       1
    28   24   25      ar
    29   24   26      ar
    30   24   27       1
    31   27   28       1
    32   28   29       1
    33   29   30       1
    34   29   31       1
    35   30   35       1
    36   31   32       1
    37   31   33       1
    38   33   34       1
    39   33   35       1
    40   35   36       1
    41   36   37      ar
    42   36   44      ar
    43   37   38      ar
    44   38   39       1
    45   38   42      ar
    46   39   40       2
    47   39   41      am
    48   42   43      ar
    49   43   44      ar
    50   45   46      ar
    51   45   47      ar
    52   45   48      ar
    53   43   72       1
    54    5   49       1
    55    5   50       1
    56    6   51       1
    57    8   52       1
    58    9   53       1
    59   10   54       1
    60   12   55       1
    61   14   56       1
    62   18   57       1
    63   18   58       1
    64   20   59       1
    65   44   73       1
    66   28   60       1
    67   28   61       1
    68   29   62       1
    69   31   63       1
    70   32   64       1
    71   33   65       1
    72   34   66       1
    73   35   67       1
    74   37   68       1
    75   41   69       1
    76   41   70       1
    77   42   71       1
@<TRIPOS>SUBSTRUCTURE
     1 NAP1001     1 GROUP             4 G     NAP     0 **** NAP G1001
