@<TRIPOS>MOLECULE
5ecc_NAP_2_ligand
   73    77     1     0     0
SMALL
NO_CHARGES


@<TRIPOS>ATOM
     1 PA          18.6740    59.7630   -24.4020 P.3          1 NAP201   0.0000
     2 O1A         17.3410    60.1130   -23.8410 O.co2        1 NAP201   0.0000
     3 O2A         18.8480    58.3310   -24.6890 O.co2        1 NAP201  -1.0000
     4 O5B         18.9450    60.6150   -25.7250 O.3          1 NAP201   0.0000
     5 C5B         19.0980    62.0170   -25.6320 C.3          1 NAP201   0.0000
     6 C4B         19.2560    62.4900   -27.0600 C.3          1 NAP201   0.0000
     7 O4B         18.0190    62.3400   -27.7210 O.3          1 NAP201   0.0000
     8 C3B         19.6510    63.9550   -27.2100 C.3          1 NAP201   0.0000
     9 O3B         21.0620    64.0820   -27.1360 O.3          1 NAP201   0.0000
    10 C2B         19.0600    64.2590   -28.5740 C.3          1 NAP201   0.0000
    11 O2B         19.8430    63.6570   -29.5770 O.3          1 NAP201   0.0000
    12 C1B         17.7980    63.4180   -28.5890 C.3          1 NAP201   0.0000
    13 N9A         16.6050    64.1620   -28.1370 N.pl3        1 NAP201   0.0000
    14 C8A         16.1270    64.3100   -26.8600 C.2          1 NAP201   0.0000
    15 N7A         14.9990    65.0430   -26.9210 N.2          1 NAP201   0.0000
    16 C5A         14.7480    65.3620   -28.2170 C.ar         1 NAP201   0.0000
    17 C6A         13.7390    66.0890   -28.8550 C.ar         1 NAP201   0.0000
    18 N6A         12.7380    66.6520   -28.1730 N.pl3        1 NAP201   0.0000
    19 N1A         13.7710    66.2250   -30.2270 N.ar         1 NAP201   0.0000
    20 C2A         14.7910    65.6560   -30.9560 C.ar         1 NAP201   0.0000
    21 N3A         15.7810    64.9400   -30.3230 N.ar         1 NAP201   0.0000
    22 C4A         15.7550    64.8000   -28.9810 C.ar         1 NAP201   0.0000
    23 O3          19.8510    60.2990   -23.4230 O.3          1 NAP201   0.0000
    24 PN          20.0490    60.3560   -21.8350 P.3          1 NAP201   0.0000
    25 O1N         21.4400    60.7700   -21.6010 O.co2        1 NAP201   0.0000
    26 O2N         18.9260    61.0470   -21.1620 O.co2        1 NAP201  -1.0000
    27 O5D         19.8840    58.8190   -21.3800 O.3          1 NAP201   0.0000
    28 C5D         20.8600    57.8560   -21.6950 C.3          1 NAP201   0.0000
    29 C4D         21.1530    57.0710   -20.4300 C.3          1 NAP201   0.0000
    30 O4D         19.9760    56.3930   -20.0190 O.3          1 NAP201   0.0000
    31 C3D         22.2020    56.0030   -20.6960 C.3          1 NAP201   0.0000
    32 O3D         23.0040    55.8960   -19.5480 O.3          1 NAP201   0.0000
    33 C2D         21.3930    54.7340   -20.8270 C.3          1 NAP201   0.0000
    34 O2D         22.1240    53.5910   -20.4470 O.3          1 NAP201   0.0000
    35 C1D         20.2760    55.0190   -19.8460 C.3          1 NAP201   0.0000
    36 N1N         19.1540    54.0990   -20.1050 N.ar         1 NAP201   1.0000
    37 C2N         18.7950    53.2910   -19.0730 C.ar         1 NAP201   0.0000
    38 C3N         17.7700    52.3790   -19.2150 C.ar         1 NAP201   0.0000
    39 C7N         17.3110    51.5890   -18.0220 C.2          1 NAP201   0.0000
    40 O7N         16.1060    50.8940   -18.1550 O.2          1 NAP201   0.0000
    41 N7N         18.0180    51.5470   -16.8880 N.am         1 NAP201   0.0000
    42 C4N         17.0960    52.2850   -20.4350 C.ar         1 NAP201   0.0000
    43 C5N         17.4740    53.1260   -21.4990 C.ar         1 NAP201   0.0000
    44 C6N         18.5170    54.0320   -21.3240 C.ar         1 NAP201   0.0000
    45 P2B         21.0740    64.3840   -30.3330 P.3          1 NAP201   0.0000
    46 O1X         22.1970    64.4840   -29.3430 O.co2        1 NAP201   0.0000
    47 O2X         21.4990    63.5020   -31.4700 O.co2        1 NAP201  -1.0000
    48 O3X         20.6050    65.7110   -30.8440 O.co2        1 NAP201  -1.0000
    49 H5B1        19.9089    62.2470   -25.0939 H            1 NAP201   0.0000
    50 H5B2        18.2907    62.4314   -25.2119 H            1 NAP201   0.0000
    51 H4B         19.9396    61.9208   -27.5169 H            1 NAP201   0.0000
    52 H3B         19.2110    64.5112   -26.5049 H            1 NAP201   0.0000
    53 H5          21.4058    64.4814   -27.9859 H            1 NAP201   0.0000
    54 H2B         18.8928    65.2327   -28.7286 H            1 NAP201   0.0000
    55 H1B         17.6417    63.0718   -29.5140 H            1 NAP201   0.0000
    56 H8A         16.5429    63.9389   -26.0298 H            1 NAP201   0.0000
    57 H6A1        12.0302    67.1664   -28.6572 H            1 NAP201   0.0000
    58 H6A2        12.6964    66.5591   -27.1782 H            1 NAP201   0.0000
    59 H2A         14.8125    65.7635   -31.9500 H            1 NAP201   0.0000
    60 H5D1        21.6924    58.3067   -22.0174 H            1 NAP201   0.0000
    61 H5D2        20.5167    57.2420   -22.4058 H            1 NAP201   0.0000
    62 H4D         21.4652    57.6874   -19.7071 H            1 NAP201   0.0000
    63 H3D         22.7394    56.1961   -21.5169 H            1 NAP201   0.0000
    64 H16         23.7758    56.5277   -19.6205 H            1 NAP201   0.0000
    65 H2D         21.0346    54.6348   -21.7553 H            1 NAP201   0.0000
    66 H18         21.5499    52.7787   -20.5500 H            1 NAP201   0.0000
    67 H1D         20.6119    54.8719   -18.9157 H            1 NAP201   0.0000
    68 H2N         19.2794    53.3584   -18.2008 H            1 NAP201   0.0000
    69 H7N1        17.6858    51.0120   -16.1112 H            1 NAP201   0.0000
    70 H7N2        18.8790    52.0506   -16.8166 H            1 NAP201   0.0000
    71 H4N         16.3523    51.6268   -20.5515 H            1 NAP201   0.0000
    72 H5N         16.9960    53.0730   -22.3758 H            1 NAP201   0.0000
    73 H6N         18.8004    54.6276   -22.0756 H            1 NAP201   0.0000
@<TRIPOS>BOND
     1    1    2      ar
     2    1    3      ar
     3    1    4       1
     4    1   23       1
     5    4    5       1
     6    5    6       1
     7    6    7       1
     8    6    8       1
     9    7   12       1
    10    8    9       1
    11    8   10       1
    12   10   11       1
    13   10   12       1
    14   11   45       1
    15   12   13       1
    16   13   14       1
    17   13   22       1
    18   14   15       2
    19   15   16       1
    20   16   17      ar
    21   16   22      ar
    22   17   18       1
    23   17   19      ar
    24   19   20      ar
    25   20   21      ar
    26   21   22      ar
    27   23   24       1
    28   24   25      ar
    29   24   26      ar
    30   24   27       1
    31   27   28       1
    32   28   29       1
    33   29   30       1
    34   29   31       1
    35   30   35       1
    36   31   32       1
    37   31   33       1
    38   33   34       1
    39   33   35       1
    40   35   36       1
    41   36   37      ar
    42   36   44      ar
    43   37   38      ar
    44   38   39       1
    45   38   42      ar
    46   39   40       2
    47   39   41      am
    48   42   43      ar
    49   43   44      ar
    50   45   46      ar
    51   45   47      ar
    52   45   48      ar
    53   43   72       1
    54    5   49       1
    55    5   50       1
    56    6   51       1
    57    8   52       1
    58    9   53       1
    59   10   54       1
    60   12   55       1
    61   14   56       1
    62   18   57       1
    63   18   58       1
    64   20   59       1
    65   44   73       1
    66   28   60       1
    67   28   61       1
    68   29   62       1
    69   31   63       1
    70   32   64       1
    71   33   65       1
    72   34   66       1
    73   35   67       1
    74   37   68       1
    75   41   69       1
    76   41   70       1
    77   42   71       1
@<TRIPOS>SUBSTRUCTURE
     1 NAP201      1 GROUP             4 B     NAP     0 **** NAP B 201
