@<TRIPOS>MOLECULE
2qc8_ADP_11_ligand
   39    41     1     0     0
SMALL
NO_CHARGES


@<TRIPOS>ATOM
     1 PB         -86.3210    -2.8160   -32.9440 P.3          1 ADP501   0.0000
     2 O1B        -87.0720    -4.1140   -32.8550 O.co2        1 ADP501   0.0000
     3 O2B        -86.9480    -1.5910   -33.5420 O.co2        1 ADP501  -1.0000
     4 O3B        -84.9310    -3.0670   -33.4810 O.co2        1 ADP501  -1.0000
     5 PA         -85.0700    -1.6190   -30.5490 P.3          1 ADP501   0.0000
     6 O1A        -84.7890    -2.4240   -29.3340 O.co2        1 ADP501   0.0000
     7 O2A        -83.9370    -1.0990   -31.4010 O.co2        1 ADP501  -1.0000
     8 O3A        -86.2170    -2.4380   -31.3550 O.3          1 ADP501   0.0000
     9 O5'        -85.8410    -0.2820   -30.1300 O.3          1 ADP501   0.0000
    10 C5'        -86.7380    -0.2850   -29.0370 C.3          1 ADP501   0.0000
    11 C4'        -86.6900     1.1090   -28.4770 C.3          1 ADP501   0.0000
    12 O4'        -88.0050     1.3510   -28.0050 O.3          1 ADP501   0.0000
    13 C3'        -85.7640     1.3000   -27.2750 C.3          1 ADP501   0.0000
    14 O3'        -85.2080     2.6220   -27.1970 O.3          1 ADP501   0.0000
    15 C2'        -86.6640     1.1270   -26.0740 C.3          1 ADP501   0.0000
    16 O2'        -86.2330     1.8360   -24.9140 O.3          1 ADP501   0.0000
    17 C1'        -87.9160     1.7750   -26.6300 C.3          1 ADP501   0.0000
    18 N9         -89.1420     1.5340   -25.8210 N.pl3        1 ADP501   0.0000
    19 C8         -89.4600     0.4660   -25.0590 C.2          1 ADP501   0.0000
    20 N7         -90.6550     0.6540   -24.4650 N.2          1 ADP501   0.0000
    21 C5         -91.1130     1.8490   -24.8660 C.ar         1 ADP501   0.0000
    22 C6         -92.3100     2.6540   -24.6410 C.ar         1 ADP501   0.0000
    23 N6         -93.2590     2.1570   -23.8420 N.pl3        1 ADP501   0.0000
    24 N1         -92.3930     3.8820   -25.2380 N.ar         1 ADP501   0.0000
    25 C2         -91.4290     4.3580   -26.0610 C.ar         1 ADP501   0.0000
    26 N3         -90.3110     3.6710   -26.3220 N.ar         1 ADP501   0.0000
    27 C4         -90.1140     2.4430   -25.7610 C.ar         1 ADP501   0.0000
    28 H5'1       -86.4476    -0.9490   -28.3480 H            1 ADP501   0.0000
    29 H5'2       -87.6633    -0.5068   -29.3445 H            1 ADP501   0.0000
    30 H4'        -86.4574     1.7618   -29.1979 H            1 ADP501   0.0000
    31 H3'        -85.0389     0.6114   -27.2750 H            1 ADP501   0.0000
    32 H5         -85.4825     3.0488   -26.3353 H            1 ADP501   0.0000
    33 H2'        -86.8161     0.1596   -25.8716 H            1 ADP501   0.0000
    34 H7         -85.6276     1.2526   -24.3726 H            1 ADP501   0.0000
    35 H1'        -87.7577     2.7624   -26.6366 H            1 ADP501   0.0000
    36 H9         -88.8901    -0.3485   -24.9507 H            1 ADP501   0.0000
    37 H10        -94.0913     2.6830   -23.6671 H            1 ADP501   0.0000
    38 H11        -93.1368     1.2591   -23.4190 H            1 ADP501   0.0000
    39 H12        -91.5569     5.2531   -26.4881 H            1 ADP501   0.0000
@<TRIPOS>BOND
     1    1    2      ar
     2    1    3      ar
     3    1    4      ar
     4    1    8       1
     5    5    6      ar
     6    5    7      ar
     7    5    8       1
     8    5    9       1
     9    9   10       1
    10   10   11       1
    11   11   12       1
    12   11   13       1
    13   12   17       1
    14   13   14       1
    15   13   15       1
    16   15   16       1
    17   15   17       1
    18   17   18       1
    19   18   19       1
    20   18   27       1
    21   19   20       2
    22   20   21       1
    23   21   22      ar
    24   21   27      ar
    25   22   23       1
    26   22   24      ar
    27   24   25      ar
    28   25   26      ar
    29   26   27      ar
    30   25   39       1
    31   23   38       1
    32   23   37       1
    33   10   28       1
    34   10   29       1
    35   11   30       1
    36   13   31       1
    37   14   32       1
    38   15   33       1
    39   16   34       1
    40   17   35       1
    41   19   36       1
@<TRIPOS>SUBSTRUCTURE
     1 ADP501      1 GROUP             4 E     ADP     0 **** ADP E 501
