@<TRIPOS>MOLECULE
5jqb_IBP_1_ligand
   32    32     1     0     0
SMALL
NO_CHARGES


@<TRIPOS>ATOM
     1 C1         -44.2350    15.9020    -8.1560 C.2          1 IBP706   0.0000
     2 C2         -47.9180    11.1120    -5.8210 C.3          1 IBP706   0.0000
     3 C3         -47.9090    10.8310    -4.3150 C.3          1 IBP706   0.0000
     4 C4         -49.1760    10.0840    -3.9110 C.3          1 IBP706   0.0000
     5 C5         -46.6820    10.0320    -3.8920 C.3          1 IBP706   0.0000
     6 C6         -43.7710    14.4710    -8.1680 C.3          1 IBP706   0.0000
     7 C7         -42.4210    14.2780    -7.4610 C.3          1 IBP706   0.0000
     8 C8         -44.8240    13.6260    -7.5450 C.ar         1 IBP706   0.0000
     9 C9         -45.5950    12.7710    -8.3340 C.ar         1 IBP706   0.0000
    10 C10        -46.5830    11.9780    -7.7460 C.ar         1 IBP706   0.0000
    11 C11        -46.8230    12.0200    -6.3670 C.ar         1 IBP706   0.0000
    12 C12        -46.0500    12.8850    -5.5810 C.ar         1 IBP706   0.0000
    13 C13        -45.0610    13.6770    -6.1670 C.ar         1 IBP706   0.0000
    14 O1         -43.7930    16.7110    -7.3070 O.co2        1 IBP706   0.0000
    15 O2         -45.0750    16.2280    -9.0210 O.co2        1 IBP706  -1.0000
    16 H1         -48.7970    11.5339    -6.0430 H            1 IBP706   0.0000
    17 H2         -47.8420    10.2328    -6.2914 H            1 IBP706   0.0000
    18 H3         -47.8943    11.7069    -3.8328 H            1 IBP706   0.0000
    19 H4         -49.1588     9.9064    -2.9270 H            1 IBP706   0.0000
    20 H5         -49.9765    10.6397    -4.1355 H            1 IBP706   0.0000
    21 H6         -49.2233     9.2162    -4.4056 H            1 IBP706   0.0000
    22 H7         -46.7135     9.8700    -2.9057 H            1 IBP706   0.0000
    23 H8         -46.6726     9.1557    -4.3736 H            1 IBP706   0.0000
    24 H9         -45.8549    10.5461    -4.1191 H            1 IBP706   0.0000
    25 H10        -43.6667    14.1858    -9.1208 H            1 IBP706   0.0000
    26 H11        -42.1604    13.3133    -7.4978 H            1 IBP706   0.0000
    27 H12        -41.7234    14.8294    -7.9184 H            1 IBP706   0.0000
    28 H13        -42.5004    14.5656    -6.5066 H            1 IBP706   0.0000
    29 H14        -45.4399    12.7262    -9.3209 H            1 IBP706   0.0000
    30 H15        -47.1294    11.3687    -8.3206 H            1 IBP706   0.0000
    31 H16        -46.2077    12.9352    -4.5948 H            1 IBP706   0.0000
    32 H17        -44.5149    14.2886    -5.5946 H            1 IBP706   0.0000
@<TRIPOS>BOND
     1    1    6       1
     2    1   14      ar
     3    1   15      ar
     4    2    3       1
     5    2   11       1
     6    3    4       1
     7    3    5       1
     8    6    7       1
     9    6    8       1
    10    8    9      ar
    11    8   13      ar
    12    9   10      ar
    13   10   11      ar
    14   11   12      ar
    15   12   13      ar
    16    2   16       1
    17    2   17       1
    18    3   18       1
    19    4   19       1
    20    4   20       1
    21    4   21       1
    22    5   22       1
    23    5   23       1
    24    5   24       1
    25    6   25       1
    26    7   26       1
    27    7   27       1
    28    7   28       1
    29    9   29       1
    30   10   30       1
    31   12   31       1
    32   13   32       1
@<TRIPOS>SUBSTRUCTURE
     1 IBP706      1 GROUP             4 B     IBP     0 **** IBP B 706
