@<TRIPOS>MOLECULE
3hgo_FMN_1_ligand
   50    52     1     0     0
SMALL
NO_CHARGES


@<TRIPOS>ATOM
     1 N1          22.1750    -3.8420     0.4730 N.2          1 FMN401   0.0000
     2 C2          21.9900    -2.4780     0.4320 C.2          1 FMN401   0.0000
     3 O2          21.7650    -1.8160     1.3990 O.2          1 FMN401   0.0000
     4 N3          22.0660    -1.8200    -0.8540 N.pl3        1 FMN401   0.0000
     5 C4          22.3110    -2.4330    -2.0540 C.2          1 FMN401   0.0000
     6 O4          22.3540    -1.7830    -3.1040 O.2          1 FMN401   0.0000
     7 C4A         22.5040    -3.9070    -2.0040 C.2          1 FMN401   0.0000
     8 N5          22.7390    -4.6200    -3.1250 N.2          1 FMN401   0.0000
     9 C5A         22.8990    -6.0010    -3.0530 C.ar         1 FMN401   0.0000
    10 C6          23.1340    -6.7840    -4.2840 C.ar         1 FMN401   0.0000
    11 C7          23.2900    -8.1770    -4.2910 C.ar         1 FMN401   0.0000
    12 C7M         23.5270    -8.9730    -5.5800 C.3          1 FMN401   0.0000
    13 C8          23.2190    -8.9290    -2.9830 C.ar         1 FMN401   0.0000
    14 C8M         23.3740   -10.4230    -2.8980 C.3          1 FMN401   0.0000
    15 C9          23.0000    -8.1960    -1.8110 C.ar         1 FMN401   0.0000
    16 C9A         22.8310    -6.7540    -1.7790 C.ar         1 FMN401   0.0000
    17 N10         22.5880    -5.9470    -0.5940 N.pl3        1 FMN401   0.0000
    18 C10         22.4180    -4.5380    -0.6470 C.2          1 FMN401   0.0000
    19 C1'         22.4950    -6.5910     0.7450 C.3          1 FMN401   0.0000
    20 C2'         21.0160    -7.0270     0.8360 C.3          1 FMN401   0.0000
    21 O2'         20.0790    -5.9470     0.8390 O.3          1 FMN401   0.0000
    22 C3'         20.5380    -7.8180     2.0330 C.3          1 FMN401   0.0000
    23 O3'         20.9350    -7.1760     3.2860 O.3          1 FMN401   0.0000
    24 C4'         21.0240    -9.2580     2.0120 C.3          1 FMN401   0.0000
    25 O4'         20.6490    -9.8640     0.7230 O.3          1 FMN401   0.0000
    26 C5'         20.3170    -9.9730     3.1390 C.3          1 FMN401   0.0000
    27 O5'         20.6350   -11.3620     3.2820 O.3          1 FMN401   0.0000
    28 P           19.8430   -12.3850     2.3910 P.3          1 FMN401   0.0000
    29 O1P         20.4740   -12.4050     1.0170 O.co2        1 FMN401   0.0000
    30 O2P         18.3940   -11.9920     2.3490 O.co2        1 FMN401  -1.0000
    31 O3P         20.0730   -13.7440     3.1390 O.co2        1 FMN401  -1.0000
    32 H1          21.9274    -0.8298    -0.8681 H            1 FMN401   0.0000
    33 H2          23.1842    -6.2959    -5.1553 H            1 FMN401   0.0000
    34 H7M1        23.6101    -9.9452    -5.3609 H            1 FMN401   0.0000
    35 H7M2        22.7565    -8.8363    -6.2026 H            1 FMN401   0.0000
    36 H7M3        24.3690    -8.6567    -6.0171 H            1 FMN401   0.0000
    37 H8M1        23.2937   -10.7127    -1.9443 H            1 FMN401   0.0000
    38 H8M2        22.6596   -10.8637    -3.4416 H            1 FMN401   0.0000
    39 H8M3        24.2717   -10.6856    -3.2517 H            1 FMN401   0.0000
    40 H9          22.9574    -8.6943    -0.9451 H            1 FMN401   0.0000
    41 H1'1        22.7209    -5.9408     1.4704 H            1 FMN401   0.0000
    42 H1'2        23.1046    -7.3815     0.8042 H            1 FMN401   0.0000
    43 H2'         20.8234    -7.5791     0.0248 H            1 FMN401   0.0000
    44 H13         20.1754    -5.4197    -0.0052 H            1 FMN401   0.0000
    45 H3'         19.5385    -7.8353     2.0050 H            1 FMN401   0.0000
    46 H15         20.2599    -7.3818     3.9945 H            1 FMN401   0.0000
    47 H4'         22.0149    -9.2949     2.1411 H            1 FMN401   0.0000
    48 H17         20.5003   -10.8451     0.8466 H            1 FMN401   0.0000
    49 H5'1        19.3322    -9.8967     2.9828 H            1 FMN401   0.0000
    50 H5'2        20.5556    -9.5125     3.9940 H            1 FMN401   0.0000
@<TRIPOS>BOND
     1    1    2       1
     2    1   18       2
     3    2    3       2
     4    2    4       1
     5    4    5       1
     6    5    6       2
     7    5    7       1
     8    7    8       2
     9    7   18       1
    10    8    9       1
    11    9   10      ar
    12    9   16      ar
    13   10   11      ar
    14   11   12       1
    15   11   13      ar
    16   13   14       1
    17   13   15      ar
    18   15   16      ar
    19   16   17       1
    20   17   18       1
    21   17   19       1
    22   19   20       1
    23   20   21       1
    24   20   22       1
    25   22   23       1
    26   22   24       1
    27   24   25       1
    28   24   26       1
    29   26   27       1
    30   27   28       1
    31   28   29      ar
    32   28   30      ar
    33   28   31      ar
    34    4   32       1
    35   10   33       1
    36   12   34       1
    37   12   35       1
    38   12   36       1
    39   14   37       1
    40   14   38       1
    41   14   39       1
    42   15   40       1
    43   19   41       1
    44   19   42       1
    45   20   43       1
    46   21   44       1
    47   22   45       1
    48   23   46       1
    49   24   47       1
    50   25   48       1
    51   26   49       1
    52   26   50       1
@<TRIPOS>SUBSTRUCTURE
     1 FMN401      1 GROUP             4 A     FMN     0 **** FMN A 401
