@<TRIPOS>MOLECULE
2cb3_MLD_1_ligand
  121   123     1     0     0
SMALL
NO_CHARGES


@<TRIPOS>ATOM
     1 CAA        -17.2800   -74.0980   -62.6390 C.3          1 MLD1345   0.0000
     2 CAB        -17.6230   -75.1130   -63.7030 C.2          1 MLD1345   0.0000
     3 OAC        -17.9000   -74.7180   -64.8660 O.2          1 MLD1345   0.0000
     4 N2         -17.6250   -76.4140   -63.3600 N.am         1 MLD1345   0.0000
     5 C2         -17.9540   -77.5190   -64.3000 C.3          1 MLD1345   0.0000
     6 C3         -18.9200   -78.5090   -63.6070 C.3          1 MLD1345   0.0000
     7 O3         -20.1290   -77.8280   -63.2640 O.3          1 MLD1345   0.0000
     8 C4         -19.2450   -79.6410   -64.5340 C.3          1 MLD1345   0.0000
     9 O4         -20.1370   -80.5230   -63.8540 O.3          1 MLD1345   0.0000
    10 C5         -17.9360   -80.3900   -64.9150 C.3          1 MLD1345   0.0000
    11 C6         -18.3010   -81.4970   -65.8760 C.3          1 MLD1345   0.0000
    12 O6         -17.0940   -82.1780   -66.2160 O.3          1 MLD1345   0.0000
    13 O5         -17.0400   -79.4470   -65.5850 O.3          1 MLD1345   0.0000
    14 C1         -16.5980   -78.3710   -64.7190 C.3          1 MLD1345   0.0000
    15 O1         -15.7300   -77.3750   -65.3330 O.3          1 MLD1345   0.0000
    16 CA4        -14.5280   -78.0850   -65.7320 C.3          1 MLD1345   0.0000
    17 CA5        -13.4740   -78.1190   -64.5310 C.3          1 MLD1345   0.0000
    18 OA5        -12.2750   -77.4150   -64.7840 O.3          1 MLD1345   0.0000
    19 CA6        -12.9210   -79.5510   -64.5130 C.3          1 MLD1345   0.0000
    20 OA6        -11.8110   -79.4250   -65.4420 O.3          1 MLD1345   0.0000
    21 CA1        -11.7470   -78.1660   -65.8980 C.3          1 MLD1345   0.0000
    22 CA2        -12.4140   -77.6710   -67.2420 C.3          1 MLD1345   0.0000
    23 NAD        -11.6730   -76.5170   -67.7270 N.am         1 MLD1345   0.0000
    24 CAE        -11.1060   -76.6500   -68.9720 C.2          1 MLD1345   0.0000
    25 CAF        -10.3320   -75.4270   -69.4970 C.3          1 MLD1345   0.0000
    26 OAG        -11.1840   -77.6690   -69.6740 O.2          1 MLD1345   0.0000
    27 CA3        -13.8830   -77.2380   -66.8810 C.3          1 MLD1345   0.0000
    28 OAH        -14.7910   -77.2540   -68.0180 O.3          1 MLD1345   0.0000
    29 CAI        -15.0480   -76.0810   -68.8070 C.3          1 MLD1345   0.0000
    30 CAJ        -16.2950   -75.3700   -68.2500 C.3          1 MLD1345   0.0000
    31 CAL        -15.2140   -76.4850   -70.2570 C.2          1 MLD1345   0.0000
    32 OAM        -15.0300   -75.6830   -71.1650 O.2          1 MLD1345   0.0000
    33 N          -15.5800   -77.7670   -70.4480 N.am         1 MLD1345   0.0000
    34 CA         -15.8160   -78.4640   -71.7400 C.3          1 MLD1345   0.0000
    35 CB         -14.5400   -78.4950   -72.5990 C.3          1 MLD1345   0.0000
    36 C          -16.2680   -79.9030   -71.5800 C.2          1 MLD1345   0.0000
    37 O          -15.7820   -80.6430   -70.7280 O.2          1 MLD1345   0.0000
    38 NAN        -17.2330   -80.2500   -72.4470 N.am         1 MLD1345   0.0000
    39 CAO        -17.8760   -81.5680   -72.5330 C.3          1 MLD1345   0.0000
    40 CAP        -19.3400   -81.3830   -72.0600 C.2          1 MLD1345   0.0000
    41 OBA        -20.2720   -80.9930   -72.9390 O.co2        1 MLD1345   0.0000
    42 OAQ        -19.5670   -81.5960   -70.8730 O.co2        1 MLD1345  -1.0000
    43 CBB        -17.8290   -82.0760   -73.9780 C.3          1 MLD1345   0.0000
    44 CBC        -16.4410   -82.2990   -74.5320 C.3          1 MLD1345   0.0000
    45 CBD        -16.3670   -82.7890   -75.9560 C.2          1 MLD1345   0.0000
    46 OBE        -17.1540   -82.2910   -76.8040 O.2          1 MLD1345   0.0000
    47 NBF        -15.4690   -83.7070   -76.2140 N.am         1 MLD1345   0.0000
    48 CBG        -15.2610   -84.2890   -77.5780 C.3          1 MLD1345   0.0000
    49 CBH        -16.2720   -85.4510   -77.8660 C.2          1 MLD1345   0.0000
    50 OBI        -16.4940   -86.3280   -76.9890 O.2          1 MLD1345   0.0000
    51 NBJ        -16.8120   -85.3490   -79.0650 N.am         1 MLD1345   0.0000
    52 CBK        -17.5640   -86.4040   -79.7910 C.3          1 MLD1345   0.0000
    53 CBL        -16.7490   -87.1370   -80.8580 C.3          1 MLD1345   0.0000
    54 CBM        -18.8300   -85.7080   -80.3480 C.2          1 MLD1345   0.0000
    55 OBO        -19.1050   -84.5340   -80.1890 O.co2        1 MLD1345   0.0000
    56 OBN        -19.6430   -86.5330   -81.0500 O.co2        1 MLD1345  -1.0000
    57 CBP        -13.7890   -84.7640   -77.7120 C.3          1 MLD1345   0.0000
    58 CBQ        -13.3910   -85.3720   -79.0470 C.3          1 MLD1345   0.0000
    59 CBR        -11.9190   -85.7980   -79.0620 C.3          1 MLD1345   0.0000
    60 CBS        -11.1920   -85.4450   -80.3680 C.3          1 MLD1345   0.0000
    61 CBT        -11.0170   -83.9110   -80.4500 C.2          1 MLD1345   0.0000
    62 OBV        -11.5990   -83.3790   -81.5330 O.co2        1 MLD1345   0.0000
    63 OBU        -10.4310   -83.2230   -79.6400 O.co2        1 MLD1345  -1.0000
    64 NBW        -11.9700   -85.9700   -81.5550 N.4          1 MLD1345   1.0000
    65 HAA1       -17.0867   -74.5694   -61.7785 H            1 MLD1345   0.0000
    66 HAA2       -16.4745   -73.5775   -62.9222 H            1 MLD1345   0.0000
    67 HAA3       -18.0517   -73.4749   -62.5116 H            1 MLD1345   0.0000
    68 H4         -17.3915   -76.6523   -62.4173 H            1 MLD1345   0.0000
    69 H5         -18.3853   -77.1460   -65.1215 H            1 MLD1345   0.0000
    70 H6         -18.4920   -78.8684   -62.7777 H            1 MLD1345   0.0000
    71 H7         -20.0443   -77.4404   -62.3461 H            1 MLD1345   0.0000
    72 H8         -19.6841   -79.2865   -65.3595 H            1 MLD1345   0.0000
    73 H9         -19.6963   -80.8695   -63.0259 H            1 MLD1345   0.0000
    74 H10        -17.4989   -80.7667   -64.0982 H            1 MLD1345   0.0000
    75 H11        -18.7202   -81.1121   -66.6983 H            1 MLD1345   0.0000
    76 H12        -18.9408   -82.1307   -65.4411 H            1 MLD1345   0.0000
    77 H13        -17.2971   -83.1365   -66.4160 H            1 MLD1345   0.0000
    78 H14        -16.1630   -78.7466   -63.9007 H            1 MLD1345   0.0000
    79 HA4        -14.7446   -79.0095   -66.0457 H            1 MLD1345   0.0000
    80 HA5        -13.8870   -77.8616   -63.6574 H            1 MLD1345   0.0000
    81 HA61       -13.5986   -80.2114   -64.8365 H            1 MLD1345   0.0000
    82 HA62       -12.6089   -79.8137   -63.6000 H            1 MLD1345   0.0000
    83 HA1        -10.7759   -77.9357   -65.9611 H            1 MLD1345   0.0000
    84 HA2        -12.4181   -78.4014   -67.9250 H            1 MLD1345   0.0000
    85 HAD        -11.5818   -75.6794   -67.1884 H            1 MLD1345   0.0000
    86 HAF1        -9.9633   -75.6301   -70.4041 H            1 MLD1345   0.0000
    87 HAF2       -10.9490   -74.6422   -69.5560 H            1 MLD1345   0.0000
    88 HAF3        -9.5810   -75.2143   -68.8719 H            1 MLD1345   0.0000
    89 HA3        -13.8376   -76.2931   -66.5569 H            1 MLD1345   0.0000
    90 HAI        -14.2646   -75.4640   -68.7319 H            1 MLD1345   0.0000
    91 HAJ1       -16.4824   -74.5514   -68.7930 H            1 MLD1345   0.0000
    92 HAJ2       -17.0798   -75.9879   -68.2968 H            1 MLD1345   0.0000
    93 HAJ3       -16.1327   -75.1089   -67.2984 H            1 MLD1345   0.0000
    94 H30        -15.7084   -78.3158   -69.6220 H            1 MLD1345   0.0000
    95 HA         -16.5224   -77.9657   -72.2426 H            1 MLD1345   0.0000
    96 HB1        -14.7287   -78.9686   -73.4593 H            1 MLD1345   0.0000
    97 HB2        -14.2449   -77.5591   -72.7915 H            1 MLD1345   0.0000
    98 HB3        -13.8170   -78.9774   -72.1046 H            1 MLD1345   0.0000
    99 HAN        -17.5410   -79.5495   -73.0908 H            1 MLD1345   0.0000
   100 HAO        -17.4053   -82.2139   -71.9319 H            1 MLD1345   0.0000
   101 HBB1       -18.2903   -81.4045   -74.5580 H            1 MLD1345   0.0000
   102 HBB2       -18.3220   -82.9451   -74.0174 H            1 MLD1345   0.0000
   103 HBC1       -15.9853   -82.9744   -73.9522 H            1 MLD1345   0.0000
   104 HBC2       -15.9485   -81.4301   -74.4817 H            1 MLD1345   0.0000
   105 HBF        -14.8946   -84.0350   -75.4640 H            1 MLD1345   0.0000
   106 HBG        -15.4173   -83.5666   -78.2516 H            1 MLD1345   0.0000
   107 HBJ        -16.7041   -84.4719   -79.5329 H            1 MLD1345   0.0000
   108 HBK        -17.8616   -87.0815   -79.1183 H            1 MLD1345   0.0000
   109 HBL1       -17.3221   -87.8276   -81.2992 H            1 MLD1345   0.0000
   110 HBL2       -16.4301   -86.4815   -81.5426 H            1 MLD1345   0.0000
   111 HBL3       -15.9620   -87.5811   -80.4297 H            1 MLD1345   0.0000
   112 HBP1       -13.6261   -85.4516   -77.0044 H            1 MLD1345   0.0000
   113 HBP2       -13.1987   -83.9731   -77.5504 H            1 MLD1345   0.0000
   114 HBQ1       -13.5395   -84.6952   -79.7680 H            1 MLD1345   0.0000
   115 HBQ2       -13.9620   -86.1744   -79.2203 H            1 MLD1345   0.0000
   116 HBR1       -11.8749   -86.7887   -78.9331 H            1 MLD1345   0.0000
   117 HBR2       -11.4499   -85.3422   -78.3055 H            1 MLD1345   0.0000
   118 HBS        -10.2882   -85.8728   -80.3599 H            1 MLD1345   0.0000
   119 HBW1       -11.4886   -85.7351   -82.3994 H            1 MLD1345   0.0000
   120 HBW2       -12.0545   -86.9640   -81.4850 H            1 MLD1345   0.0000
   121 HBW3       -12.8811   -85.5579   -81.5651 H            1 MLD1345   0.0000
@<TRIPOS>BOND
     1    1    2       1
     2    2    3       2
     3    2    4      am
     4    4    5       1
     5    5    6       1
     6    5   14       1
     7    6    7       1
     8    6    8       1
     9    8    9       1
    10    8   10       1
    11   10   11       1
    12   10   13       1
    13   11   12       1
    14   13   14       1
    15   14   15       1
    16   15   16       1
    17   16   17       1
    18   16   27       1
    19   17   18       1
    20   17   19       1
    21   18   21       1
    22   19   20       1
    23   20   21       1
    24   21   22       1
    25   22   23       1
    26   22   27       1
    27   23   24      am
    28   24   25       1
    29   24   26       2
    30   27   28       1
    31   28   29       1
    32   29   30       1
    33   29   31       1
    34   31   32       2
    35   31   33      am
    36   33   34       1
    37   34   35       1
    38   34   36       1
    39   36   37       2
    40   36   38      am
    41   38   39       1
    42   39   40       1
    43   39   43       1
    44   40   41      ar
    45   40   42      ar
    46   43   44       1
    47   44   45       1
    48   45   46       2
    49   45   47      am
    50   47   48       1
    51   48   49       1
    52   48   57       1
    53   49   50       2
    54   49   51      am
    55   51   52       1
    56   52   53       1
    57   52   54       1
    58   54   55      ar
    59   54   56      ar
    60   57   58       1
    61   58   59       1
    62   59   60       1
    63   60   61       1
    64   60   64       1
    65   61   62      ar
    66   61   63      ar
    67    1   65       1
    68    1   66       1
    69    1   67       1
    70    4   68       1
    71    5   69       1
    72    6   70       1
    73    7   71       1
    74    8   72       1
    75    9   73       1
    76   10   74       1
    77   11   75       1
    78   11   76       1
    79   12   77       1
    80   14   78       1
    81   16   79       1
    82   17   80       1
    83   19   81       1
    84   19   82       1
    85   21   83       1
    86   22   84       1
    87   23   85       1
    88   25   86       1
    89   25   87       1
    90   25   88       1
    91   27   89       1
    92   29   90       1
    93   30   91       1
    94   30   92       1
    95   30   93       1
    96   33   94       1
    97   34   95       1
    98   35   96       1
    99   35   97       1
   100   35   98       1
   101   38   99       1
   102   39  100       1
   103   64  120       1
   104   43  101       1
   105   43  102       1
   106   44  103       1
   107   44  104       1
   108   47  105       1
   109   48  106       1
   110   51  107       1
   111   52  108       1
   112   53  109       1
   113   53  110       1
   114   53  111       1
   115   64  119       1
   116   57  112       1
   117   57  113       1
   118   58  114       1
   119   58  115       1
   120   59  116       1
   121   59  117       1
   122   60  118       1
   123   64  121       1
@<TRIPOS>SUBSTRUCTURE
     1 MLD1345     1 GROUP             4 A     MLD     0 **** MLD A1345
