@<TRIPOS>MOLECULE
3ggp_NAD_4_ligand
   70    74     1     0     0
SMALL
NO_CHARGES


@<TRIPOS>ATOM
     1 PA          34.9240     9.6920   -13.4070 P.3          1 NAD312   0.0000
     2 O1A         35.6590     9.0230   -12.3400 O.co2        1 NAD312   0.0000
     3 O2A         34.7440     9.0790   -14.7110 O.co2        1 NAD312  -1.0000
     4 O5B         35.5070    11.2340   -13.5990 O.3          1 NAD312   0.0000
     5 C5B         35.9550    11.9340   -12.4450 C.3          1 NAD312   0.0000
     6 C4B         37.0390    12.8720   -13.0370 C.3          1 NAD312   0.0000
     7 O4B         37.3760    13.8020   -12.0300 O.3          1 NAD312   0.0000
     8 C3B         38.3520    12.1060   -13.4370 C.3          1 NAD312   0.0000
     9 O3B         38.8980    12.5620   -14.6540 O.3          1 NAD312   0.0000
    10 C2B         39.2890    12.4060   -12.3000 C.3          1 NAD312   0.0000
    11 O2B         40.6140    12.4850   -12.7310 O.3          1 NAD312   0.0000
    12 C1B         38.7710    13.8100   -11.9280 C.3          1 NAD312   0.0000
    13 N9A         39.1420    14.2330   -10.5780 N.pl3        1 NAD312   0.0000
    14 C8A         39.2810    13.5120    -9.4410 C.2          1 NAD312   0.0000
    15 N7A         39.6350    14.3750    -8.4670 N.2          1 NAD312   0.0000
    16 C5A         39.7180    15.6400    -9.0150 C.ar         1 NAD312   0.0000
    17 C6A         40.0580    16.8540    -8.4490 C.ar         1 NAD312   0.0000
    18 N6A         40.5330    16.8690    -7.1690 N.pl3        1 NAD312   0.0000
    19 N1A         40.0460    17.9580    -9.2380 N.ar         1 NAD312   0.0000
    20 C2A         39.7010    17.8960   -10.5820 C.ar         1 NAD312   0.0000
    21 N3A         39.4000    16.6570   -11.1740 N.ar         1 NAD312   0.0000
    22 C4A         39.4170    15.5550   -10.3440 C.ar         1 NAD312   0.0000
    23 O3          33.5210     9.9050   -12.5560 O.3          1 NAD312   0.0000
    24 PN          32.1370    10.2560   -13.2670 P.3          1 NAD312   0.0000
    25 O1N         31.3690     9.0290   -13.4810 O.co2        1 NAD312   0.0000
    26 O2N         32.3270    11.1760   -14.4410 O.co2        1 NAD312  -1.0000
    27 O5D         31.4860    11.0670   -12.0270 O.3          1 NAD312   0.0000
    28 C5D         31.7060    12.4980   -11.9470 C.3          1 NAD312   0.0000
    29 C4D         30.6370    13.1430   -11.0660 C.3          1 NAD312   0.0000
    30 O4D         29.3360    12.8580   -11.5920 O.3          1 NAD312   0.0000
    31 C3D         30.6570    12.5950    -9.6630 C.3          1 NAD312   0.0000
    32 O3D         30.5140    13.6690    -8.7080 O.3          1 NAD312   0.0000
    33 C2D         29.4780    11.6540    -9.6290 C.3          1 NAD312   0.0000
    34 O2D         28.9260    11.5710    -8.3320 O.3          1 NAD312   0.0000
    35 C1D         28.5090    12.3320   -10.5720 C.3          1 NAD312   0.0000
    36 N1N         27.6020    11.4370   -11.2680 N.ar         1 NAD312   1.0000
    37 C2N         28.0690    10.2310   -11.7930 C.ar         1 NAD312   0.0000
    38 C3N         27.1500     9.4270   -12.4880 C.ar         1 NAD312   0.0000
    39 C7N         27.5420     8.0460   -12.9450 C.2          1 NAD312   0.0000
    40 O7N         28.7810     7.5270   -12.7080 O.2          1 NAD312   0.0000
    41 N7N         26.7200     7.3420   -13.6370 N.am         1 NAD312   0.0000
    42 C4N         25.8260     9.8480   -12.6630 C.ar         1 NAD312   0.0000
    43 C5N         25.3860    11.0620   -12.1640 C.ar         1 NAD312   0.0000
    44 C6N         26.3060    11.8580   -11.4690 C.ar         1 NAD312   0.0000
    45 H5B1        36.3454    11.3085   -11.7695 H            1 NAD312   0.0000
    46 H5B2        35.2123    12.4562   -12.0257 H            1 NAD312   0.0000
    47 H4B         36.6721    13.3532   -13.8331 H            1 NAD312   0.0000
    48 H3B         38.1751    11.1230   -13.4865 H            1 NAD312   0.0000
    49 H5          39.1218    13.5335   -14.5757 H            1 NAD312   0.0000
    50 H2B         39.1804    11.7573   -11.5468 H            1 NAD312   0.0000
    51 H7          40.8245    13.4276   -12.9903 H            1 NAD312   0.0000
    52 H1B         39.1368    14.4710   -12.5832 H            1 NAD312   0.0000
    53 H8A         39.1466    12.5260    -9.3419 H            1 NAD312   0.0000
    54 H6A1        40.7852    17.7361    -6.7394 H            1 NAD312   0.0000
    55 H6A2        40.6287    16.0129    -6.6611 H            1 NAD312   0.0000
    56 H2A         39.6667    18.7327   -11.1285 H            1 NAD312   0.0000
    57 H5D1        31.6603    12.8918   -12.8650 H            1 NAD312   0.0000
    58 H5D2        32.6087    12.6727   -11.5539 H            1 NAD312   0.0000
    59 H4D         30.7776    14.1327   -11.0403 H            1 NAD312   0.0000
    60 H3D         31.5064    12.0939    -9.4978 H            1 NAD312   0.0000
    61 H17         31.2687    14.3158    -8.8183 H            1 NAD312   0.0000
    62 H2D         29.7330    10.7484    -9.9680 H            1 NAD312   0.0000
    63 H19         28.1486    10.9420    -8.3402 H            1 NAD312   0.0000
    64 H1D         28.0065    13.0607   -10.1066 H            1 NAD312   0.0000
    65 H2N         29.0218     9.9498   -11.6788 H            1 NAD312   0.0000
    66 H7N1        26.9795     6.4252   -13.9407 H            1 NAD312   0.0000
    67 H7N2        25.8206     7.7107   -13.8720 H            1 NAD312   0.0000
    68 H4N         25.1860     9.2603   -13.1580 H            1 NAD312   0.0000
    69 H5N         24.4410    11.3615   -12.2955 H            1 NAD312   0.0000
    70 H6N         26.0169    12.7466   -11.1129 H            1 NAD312   0.0000
@<TRIPOS>BOND
     1    1    2      ar
     2    1    3      ar
     3    1    4       1
     4    1   23       1
     5    4    5       1
     6    5    6       1
     7    6    7       1
     8    6    8       1
     9    7   12       1
    10    8    9       1
    11    8   10       1
    12   10   11       1
    13   10   12       1
    14   12   13       1
    15   13   14       1
    16   13   22       1
    17   14   15       2
    18   15   16       1
    19   16   17      ar
    20   16   22      ar
    21   17   18       1
    22   17   19      ar
    23   19   20      ar
    24   20   21      ar
    25   21   22      ar
    26   23   24       1
    27   24   25      ar
    28   24   26      ar
    29   24   27       1
    30   27   28       1
    31   28   29       1
    32   29   30       1
    33   29   31       1
    34   30   35       1
    35   31   32       1
    36   31   33       1
    37   33   34       1
    38   33   35       1
    39   35   36       1
    40   36   37      ar
    41   36   44      ar
    42   37   38      ar
    43   38   39       1
    44   38   42      ar
    45   39   40       2
    46   39   41      am
    47   42   43      ar
    48   43   44      ar
    49   44   70       1
    50    5   45       1
    51    5   46       1
    52    6   47       1
    53    8   48       1
    54    9   49       1
    55   10   50       1
    56   11   51       1
    57   12   52       1
    58   14   53       1
    59   18   54       1
    60   18   55       1
    61   20   56       1
    62   43   69       1
    63   28   57       1
    64   28   58       1
    65   29   59       1
    66   31   60       1
    67   32   61       1
    68   33   62       1
    69   34   63       1
    70   35   64       1
    71   37   65       1
    72   41   66       1
    73   41   67       1
    74   42   68       1
@<TRIPOS>SUBSTRUCTURE
     1 NAD312      1 GROUP             4 B     NAD     0 **** NAD B 312
