@<TRIPOS>MOLECULE
3kz1_GSP_1_ligand
   44    46     1     0     0
SMALL
NO_CHARGES


@<TRIPOS>ATOM
     1 PG          12.9020     1.9660     4.8670 P.3          1 GSP538   0.0000
     2 O3B         13.1970     1.9070     3.2810 O.3          1 GSP538   0.0000
     3 S1G         13.6150     3.4340     5.5150 S.2          1 GSP538   0.0000
     4 O2G         11.3680     1.8340     5.0520 O.co2        1 GSP538  -1.0000
     5 O3G         13.6130     0.7550     5.4820 O.co2        1 GSP538  -1.0000
     6 PB          12.7390     0.7130     2.2930 P.3          1 GSP538   0.0000
     7 O1B         13.7730    -0.3520     2.2340 O.co2        1 GSP538   0.0000
     8 O2B         11.4220     0.1670     2.7210 O.co2        1 GSP538  -1.0000
     9 PA          11.2480     1.8330     0.1080 P.3          1 GSP538   0.0000
    10 O1A         10.5450     0.5470    -0.1310 O.co2        1 GSP538   0.0000
    11 O2A         10.3420     2.6320     0.9520 O.co2        1 GSP538  -1.0000
    12 O3A         12.6450     1.4820     0.8560 O.3          1 GSP538   0.0000
    13 O5'         11.6440     2.4450    -1.3320 O.3          1 GSP538   0.0000
    14 C5'         12.6470     3.4410    -1.3750 C.3          1 GSP538   0.0000
    15 C4'         12.6610     4.3520    -2.6090 C.3          1 GSP538   0.0000
    16 O4'         13.1740     3.6450    -3.7110 O.3          1 GSP538   0.0000
    17 C3'         11.3090     4.9260    -3.0100 C.3          1 GSP538   0.0000
    18 O3'         11.4420     6.3170    -3.2260 O.3          1 GSP538   0.0000
    19 C2'         10.9520     4.2460    -4.3150 C.3          1 GSP538   0.0000
    20 O2'         10.4870     5.1840    -5.2660 O.3          1 GSP538   0.0000
    21 C1'         12.2670     3.6560    -4.7920 C.3          1 GSP538   0.0000
    22 N9          12.0680     2.3130    -5.3710 N.pl3        1 GSP538   0.0000
    23 C8          11.4850     1.2050    -4.8090 C.2          1 GSP538   0.0000
    24 N7          11.5250     0.1750    -5.7010 N.2          1 GSP538   0.0000
    25 C5          12.1270     0.6040    -6.8220 C.2          1 GSP538   0.0000
    26 C6          12.4320    -0.0130    -8.0310 C.2          1 GSP538   0.0000
    27 O6          12.1250    -1.1720    -8.2300 O.2          1 GSP538   0.0000
    28 N1          13.0930     0.6870    -9.0170 N.pl3        1 GSP538   0.0000
    29 C2          13.4400     2.0150    -8.8020 C.2          1 GSP538   0.0000
    30 N2          14.0720     2.7060    -9.7420 N.pl3        1 GSP538   0.0000
    31 N3          13.1300     2.6340    -7.6060 N.2          1 GSP538   0.0000
    32 C4          12.4800     1.9430    -6.6290 C.2          1 GSP538   0.0000
    33 H5'1        13.5334     2.9805    -1.3283 H            1 GSP538   0.0000
    34 H5'2        12.5308     4.0229    -0.5701 H            1 GSP538   0.0000
    35 H4'         13.2767     5.1170    -2.4201 H            1 GSP538   0.0000
    36 H3'         10.6201     4.7381    -2.3099 H            1 GSP538   0.0000
    37 H5          11.1891     6.5336    -4.1689 H            1 GSP538   0.0000
    38 H2'         10.2739     3.5264    -4.1659 H            1 GSP538   0.0000
    39 H7           9.5538     4.9487    -5.5375 H            1 GSP538   0.0000
    40 H1'         12.6370     4.2521    -5.5046 H            1 GSP538   0.0000
    41 H9          11.0928     1.1603    -3.8902 H            1 GSP538   0.0000
    42 H10         13.3217     0.2415    -9.8826 H            1 GSP538   0.0000
    43 H11         14.3184     3.6615    -9.5797 H            1 GSP538   0.0000
    44 H12         14.3019     2.2713   -10.6127 H            1 GSP538   0.0000
@<TRIPOS>BOND
     1    1    2       1
     2    1    3       2
     3    1    4      ar
     4    1    5      ar
     5    2    6       1
     6    6    7      ar
     7    6    8      ar
     8    6   12       1
     9    9   10      ar
    10    9   11      ar
    11    9   12       1
    12    9   13       1
    13   13   14       1
    14   14   15       1
    15   15   16       1
    16   15   17       1
    17   16   21       1
    18   17   18       1
    19   17   19       1
    20   19   20       1
    21   19   21       1
    22   21   22       1
    23   22   23       1
    24   22   32       1
    25   23   24       2
    26   24   25       1
    27   25   26       1
    28   25   32       2
    29   26   27       2
    30   26   28       1
    31   28   29       1
    32   29   30       1
    33   29   31       2
    34   31   32       1
    35   30   44       1
    36   30   43       1
    37   28   42       1
    38   23   41       1
    39   14   33       1
    40   14   34       1
    41   15   35       1
    42   17   36       1
    43   18   37       1
    44   19   38       1
    45   20   39       1
    46   21   40       1
@<TRIPOS>SUBSTRUCTURE
     1 GSP538      1 GROUP             4 E     GSP     0 **** GSP E 538
