@<TRIPOS>MOLECULE
5c1d_12V_1_ligand
   64    66     1     0     0
SMALL
NO_CHARGES


@<TRIPOS>ATOM
     1 N1          12.5200   -39.7810   -28.8470 N.pl3        1 12V1101   0.0000
     2 C2          12.9710   -38.5480   -29.1560 C.2          1 12V1101   0.0000
     3 O2          14.0410   -38.3580   -29.6980 O.2          1 12V1101   0.0000
     4 N3          12.2640   -37.4350   -28.8290 N.pl3        1 12V1101   0.0000
     5 C4          11.0680   -37.5520   -28.1480 C.2          1 12V1101   0.0000
     6 O4          10.4560   -36.5180   -27.8740 O.2          1 12V1101   0.0000
     7 C5          10.5780   -38.8060   -27.8240 C.2          1 12V1101   0.0000
     8 C6          11.3010   -39.9310   -28.1910 C.2          1 12V1101   0.0000
     9 PA          10.9200   -46.3400   -30.3380 P.3          1 12V1101   0.0000
    10 PB          11.2250   -47.8560   -27.9030 P.3          1 12V1101   0.0000
    11 C1'         12.7340   -49.4120   -29.5840 C.3          1 12V1101   0.0000
    12 O1'         12.5620   -48.6530   -28.1110 O.3          1 12V1101   0.0000
    13 O1A         11.4520   -47.5090   -31.0300 O.co2        1 12V1101   0.0000
    14 C1B         13.2930   -40.9650   -29.2610 C.3          1 12V1101   0.0000
    15 O1B         11.0530   -47.3870   -26.4880 O.co2        1 12V1101   0.0000
    16 C2'         12.3600   -50.9670   -29.6850 C.3          1 12V1101   0.0000
    17 N2'         10.9050   -51.1400   -29.4140 N.am         1 12V1101   0.0000
    18 O2'         14.8070   -41.6880   -27.5010 O.3          1 12V1101   0.0000
    19 O2A          9.4970   -45.9880   -30.4790 O.co2        1 12V1101  -1.0000
    20 C2B         13.5730   -42.0060   -28.2170 C.3          1 12V1101   0.0000
    21 O2B         10.1260   -48.6480   -28.4700 O.co2        1 12V1101  -1.0000
    22 C3'         13.2890   -51.8380   -28.7330 C.3          1 12V1101   0.0000
    23 O3'         12.7710   -53.1880   -28.3910 O.3          1 12V1101   0.0000
    24 O3A         11.3300   -46.5180   -28.7900 O.3          1 12V1101   0.0000
    25 C3B         13.7570   -43.1940   -29.1270 C.3          1 12V1101   0.0000
    26 O3B         15.0650   -43.1990   -29.6730 O.3          1 12V1101   0.0000
    27 C4'         14.6770   -52.0360   -29.3490 C.3          1 12V1101   0.0000
    28 O4'         15.5440   -52.5250   -28.3410 O.3          1 12V1101   0.0000
    29 C4B         12.7530   -42.9650   -30.2710 C.3          1 12V1101   0.0000
    30 O4B         12.3560   -41.5840   -30.2000 O.3          1 12V1101   0.0000
    31 C5'         15.3330   -50.7400   -30.0100 C.3          1 12V1101   0.0000
    32 S5'         14.3070   -49.3070   -30.4290 S.3          1 12V1101   0.0000
    33 C5B         11.4930   -43.8000   -30.1070 C.3          1 12V1101   0.0000
    34 O5B         11.7720   -45.0550   -30.7090 O.3          1 12V1101   0.0000
    35 C6'         16.0610   -51.4070   -31.1910 C.3          1 12V1101   0.0000
    36 O6'         17.0000   -50.5400   -31.8450 O.3          1 12V1101   0.0000
    37 C7'         10.0770   -51.6100   -30.3670 C.2          1 12V1101   0.0000
    38 O7'         10.4870   -51.9390   -31.4800 O.2          1 12V1101   0.0000
    39 C8'          8.5810   -51.7860   -29.9820 C.3          1 12V1101   0.0000
    40 H1          12.6094   -36.5311   -29.0813 H            1 12V1101   0.0000
    41 H2           9.7129   -38.8992   -27.3311 H            1 12V1101   0.0000
    42 H3          10.9491   -40.8443   -27.9858 H            1 12V1101   0.0000
    43 H1'         12.0850   -48.9508   -30.1891 H            1 12V1101   0.0000
    44 H1B         14.1353   -40.6939   -29.7268 H            1 12V1101   0.0000
    45 H2'         12.5304   -51.2597   -30.6259 H            1 12V1101   0.0000
    46 H7          10.5388   -50.9044   -28.5138 H            1 12V1101   0.0000
    47 H8          14.7486   -42.0360   -26.5653 H            1 12V1101   0.0000
    48 H2B         12.8002   -42.1282   -27.5942 H            1 12V1101   0.0000
    49 H3'         13.4059   -51.3325   -27.8781 H            1 12V1101   0.0000
    50 H11         12.2179   -53.1321   -27.5597 H            1 12V1101   0.0000
    51 H3B         13.5649   -44.0491   -28.6455 H            1 12V1101   0.0000
    52 H13         15.5350   -44.0399   -29.4046 H            1 12V1101   0.0000
    53 H4'         14.6019   -52.7380   -30.0572 H            1 12V1101   0.0000
    54 H15         15.9043   -53.4167   -28.6150 H            1 12V1101   0.0000
    55 H4B         13.1833   -43.1568   -31.1531 H            1 12V1101   0.0000
    56 H5'         16.0384   -50.4175   -29.3788 H            1 12V1101   0.0000
    57 H5B1        10.7219   -43.3586   -30.5659 H            1 12V1101   0.0000
    58 H5B2        11.2797   -43.9198   -29.1374 H            1 12V1101   0.0000
    59 H6'1        15.3780   -51.6976   -31.8611 H            1 12V1101   0.0000
    60 H6'2        16.5536   -52.2071   -30.8487 H            1 12V1101   0.0000
    61 H6'         17.7470   -51.0846   -32.2262 H            1 12V1101   0.0000
    62 H8'1         8.0737   -52.1386   -30.7683 H            1 12V1101   0.0000
    63 H8'2         8.5063   -52.4303   -29.2209 H            1 12V1101   0.0000
    64 H8'3         8.2008   -50.9022   -29.7092 H            1 12V1101   0.0000
@<TRIPOS>BOND
     1    1    2       1
     2    1    8       1
     3    1   14       1
     4    2    3       2
     5    2    4       1
     6    4    5       1
     7    5    6       2
     8    5    7       1
     9    7    8       2
    10    9   13      ar
    11    9   19      ar
    12    9   24       1
    13    9   34       1
    14   10   12       1
    15   10   15      ar
    16   10   21      ar
    17   10   24       1
    18   11   12       1
    19   11   16       1
    20   11   32       1
    21   14   20       1
    22   14   30       1
    23   16   17       1
    24   16   22       1
    25   17   37      am
    26   18   20       1
    27   20   25       1
    28   22   23       1
    29   22   27       1
    30   25   26       1
    31   25   29       1
    32   27   28       1
    33   27   31       1
    34   29   30       1
    35   29   33       1
    36   31   32       1
    37   31   35       1
    38   33   34       1
    39   35   36       1
    40   37   38       2
    41   37   39       1
    42    4   40       1
    43    7   41       1
    44    8   42       1
    45   11   43       1
    46   39   64       1
    47   14   44       1
    48   39   63       1
    49   16   45       1
    50   17   46       1
    51   18   47       1
    52   20   48       1
    53   22   49       1
    54   23   50       1
    55   25   51       1
    56   26   52       1
    57   27   53       1
    58   28   54       1
    59   29   55       1
    60   31   56       1
    61   33   57       1
    62   33   58       1
    63   35   59       1
    64   35   60       1
    65   36   61       1
    66   39   62       1
@<TRIPOS>SUBSTRUCTURE
     1 12V1101     1 GROUP             4 A     12V     0 **** 12V A1101
