@<TRIPOS>MOLECULE
3ut3_EMJ_1_ligand
   47    47     1     0     0
SMALL
NO_CHARGES


@<TRIPOS>ATOM
     1 C2          10.2070    27.3690    42.4680 C.2          1 EMJ401   0.0000
     2 C3          11.1890    28.3420    42.0890 C.2          1 EMJ401   0.0000
     3 C4          10.7900    29.3600    41.2390 C.2          1 EMJ401   0.0000
     4 C5           9.4930    29.4480    40.7510 C.2          1 EMJ401   0.0000
     5 C6           8.5500    28.5000    41.1230 C.2          1 EMJ401   0.0000
     6 C7           8.8990    27.4500    41.9860 C.2          1 EMJ401   0.0000
     7 O8           9.1540    30.3640    39.9660 O.2          1 EMJ401   0.0000
     8 O9          10.4170    26.3930    43.2410 O.2          1 EMJ401   0.0000
     9 O10         11.6860    30.3080    40.8850 O.3          1 EMJ401   0.0000
    10 O11          7.9570    26.5080    42.3470 O.3          1 EMJ401   0.0000
    11 C12         12.6550    28.3970    42.5720 C.3          1 EMJ401   0.0000
    12 C13         12.8390    27.3890    43.7220 C.3          1 EMJ401   0.0000
    13 C14         14.2130    27.2130    44.3890 C.3          1 EMJ401   0.0000
    14 C15         13.9630    26.7360    45.8500 C.3          1 EMJ401   0.0000
    15 C16         15.1900    26.2460    46.6480 C.3          1 EMJ401   0.0000
    16 C17         14.7460    25.2180    47.6900 C.3          1 EMJ401   0.0000
    17 C18         15.9190    24.6680    48.4960 C.3          1 EMJ401   0.0000
    18 C19         15.4420    24.1560    49.8620 C.3          1 EMJ401   0.0000
    19 C20         16.6300    23.6050    50.6720 C.3          1 EMJ401   0.0000
    20 C21         16.2410    23.0770    52.0670 C.3          1 EMJ401   0.0000
    21 C22         17.3410    22.2770    52.7550 C.3          1 EMJ401   0.0000
    22 H1           7.6153    28.5657    40.7736 H            1 EMJ401   0.0000
    23 H2          12.8673    29.3188    42.8963 H            1 EMJ401   0.0000
    24 H3          13.2664    28.1602    41.8169 H            1 EMJ401   0.0000
    25 H4          12.5773    26.4931    43.3631 H            1 EMJ401   0.0000
    26 H5          12.2017    27.6579    44.4442 H            1 EMJ401   0.0000
    27 H6          14.7051    28.0835    44.3930 H            1 EMJ401   0.0000
    28 H7          14.7487    26.5295    43.8931 H            1 EMJ401   0.0000
    29 H8          13.3069    25.9823    45.8129 H            1 EMJ401   0.0000
    30 H9          13.5626    27.5020    46.3529 H            1 EMJ401   0.0000
    31 H10         15.6195    27.0228    47.1086 H            1 EMJ401   0.0000
    32 H11         15.8469    25.8242    46.0230 H            1 EMJ401   0.0000
    33 H12         14.2939    24.4592    47.2211 H            1 EMJ401   0.0000
    34 H13         14.1008    25.6539    48.3174 H            1 EMJ401   0.0000
    35 H14         16.5924    25.3943    48.6340 H            1 EMJ401   0.0000
    36 H15         16.3402    23.9145    47.9912 H            1 EMJ401   0.0000
    37 H16         14.7704    23.4279    49.7250 H            1 EMJ401   0.0000
    38 H17         15.0194    24.9086    50.3670 H            1 EMJ401   0.0000
    39 H18         17.2996    24.3386    50.7881 H            1 EMJ401   0.0000
    40 H19         17.0432    22.8552    50.1552 H            1 EMJ401   0.0000
    41 H20         15.4387    22.4883    51.9681 H            1 EMJ401   0.0000
    42 H21         16.0113    23.8589    52.6465 H            1 EMJ401   0.0000
    43 H22         17.0188    21.9686    53.6500 H            1 EMJ401   0.0000
    44 H23         17.5767    21.4835    52.1940 H            1 EMJ401   0.0000
    45 H24         18.1492    22.8541    52.8724 H            1 EMJ401   0.0000
    46 H25          7.0229    26.5751    41.9963 H            1 EMJ401   0.0000
    47 H26         11.4134    31.0496    40.2720 H            1 EMJ401   0.0000
@<TRIPOS>BOND
     1    1    2       1
     2    1    6       1
     3    1    8       2
     4    2    3       2
     5    2   11       1
     6    3    4       1
     7    3    9       1
     8    4    5       1
     9    4    7       2
    10    5    6       2
    11    6   10       1
    12   11   12       1
    13   12   13       1
    14   13   14       1
    15   14   15       1
    16   15   16       1
    17   16   17       1
    18   17   18       1
    19   18   19       1
    20   19   20       1
    21   20   21       1
    22    5   22       1
    23    9   47       1
    24   10   46       1
    25   11   23       1
    26   11   24       1
    27   12   25       1
    28   12   26       1
    29   13   27       1
    30   13   28       1
    31   14   29       1
    32   14   30       1
    33   15   31       1
    34   15   32       1
    35   16   33       1
    36   16   34       1
    37   17   35       1
    38   17   36       1
    39   18   37       1
    40   18   38       1
    41   19   39       1
    42   19   40       1
    43   20   41       1
    44   20   42       1
    45   21   43       1
    46   21   44       1
    47   21   45       1
@<TRIPOS>SUBSTRUCTURE
     1 EMJ401      1 GROUP             4 B     EMJ     0 **** EMJ B 401
