@<TRIPOS>MOLECULE
1dtl_BEP_1_ligand
   62    64     1     0     0
SMALL
NO_CHARGES


@<TRIPOS>ATOM
     1 C1           6.7260     1.5570     1.5880 C.3          1 BEP204   0.0000
     2 C2           5.8580     2.4180     0.6410 C.3          1 BEP204   0.0000
     3 C3           4.3760     2.0730     0.7590 C.3          1 BEP204   0.0000
     4 O1           7.8900     2.3340     1.7940 O.3          1 BEP204   0.0000
     5 N2           6.4010     2.2540    -0.6890 N.4          1 BEP204   1.0000
     6 N3           4.2350     1.3840     2.0550 N.pl3        1 BEP204   0.0000
     7 C4           8.0230     2.6060     3.1730 C.3          1 BEP204   0.0000
     8 C5           8.4950     4.0500     3.3470 C.3          1 BEP204   0.0000
     9 C6           7.5350     5.0090     2.6430 C.3          1 BEP204   0.0000
    10 C7           8.6080     4.4100     4.8310 C.3          1 BEP204   0.0000
    11 C8           5.4880     1.6360    -1.6270 C.3          1 BEP204   0.0000
    12 C9           6.3980     1.4960    -2.8560 C.3          1 BEP204   0.0000
    13 C10          7.7110     1.0670    -2.2020 C.3          1 BEP204   0.0000
    14 C11          7.3960     1.1930    -0.7120 C.3          1 BEP204   0.0000
    15 C12          3.9110     2.2880     3.1270 C.3          1 BEP204   0.0000
    16 C13          2.9700     3.3640     3.1540 C.ar         1 BEP204   0.0000
    17 C14          3.2140     4.4140     4.0490 C.ar         1 BEP204   0.0000
    18 C15          2.3270     5.4740     4.1440 C.ar         1 BEP204   0.0000
    19 C16          1.2010     5.5410     3.3340 C.ar         1 BEP204   0.0000
    20 C17          0.9560     4.5120     2.4330 C.ar         1 BEP204   0.0000
    21 C18          1.8350     3.4360     2.3580 C.ar         1 BEP204   0.0000
    22 C19          3.2620     0.3810     1.9200 C.ar         1 BEP204   0.0000
    23 C20          3.2240    -0.3760     0.7530 C.ar         1 BEP204   0.0000
    24 C21          2.2880    -1.3960     0.5990 C.ar         1 BEP204   0.0000
    25 C22          1.3740    -1.6490     1.6140 C.ar         1 BEP204   0.0000
    26 C23          1.4130    -0.9020     2.7910 C.ar         1 BEP204   0.0000
    27 C24          2.3220     0.1400     2.9180 C.ar         1 BEP204   0.0000
    28 H1           6.9547     0.6817     1.1618 H            1 BEP204   0.0000
    29 H2           6.2515     1.3928     2.4528 H            1 BEP204   0.0000
    30 H3           5.9728     3.3759     0.9042 H            1 BEP204   0.0000
    31 H4           4.0964     1.4712     0.0108 H            1 BEP204   0.0000
    32 H5           3.8210     2.9047     0.7430 H            1 BEP204   0.0000
    33 H6           8.6933     1.9825     3.5755 H            1 BEP204   0.0000
    34 H7           7.1400     2.4841     3.6263 H            1 BEP204   0.0000
    35 H8           9.3986     4.1413     2.9285 H            1 BEP204   0.0000
    36 H9           7.8543     5.9489     2.7641 H            1 BEP204   0.0000
    37 H10          7.5020     4.7912     1.6676 H            1 BEP204   0.0000
    38 H11          6.6207     4.9143     3.0369 H            1 BEP204   0.0000
    39 H12          8.9175     5.3566     4.9217 H            1 BEP204   0.0000
    40 H13          7.7142     4.3082     5.2677 H            1 BEP204   0.0000
    41 H14          9.2662     3.8003     5.2727 H            1 BEP204   0.0000
    42 H15          4.7005     2.2225    -1.8161 H            1 BEP204   0.0000
    43 H16          5.1700     0.7460    -1.3003 H            1 BEP204   0.0000
    44 H17          6.4963     2.3652    -3.3407 H            1 BEP204   0.0000
    45 H18          6.0576     0.7990    -3.4871 H            1 BEP204   0.0000
    46 H19          8.4609     1.6739    -2.4653 H            1 BEP204   0.0000
    47 H20          7.9440     0.1250    -2.4436 H            1 BEP204   0.0000
    48 H21          7.0227     0.3396    -0.3481 H            1 BEP204   0.0000
    49 H22          8.2101     1.4497    -0.1910 H            1 BEP204   0.0000
    50 H23          4.7836     2.7175     3.3597 H            1 BEP204   0.0000
    51 H24          3.6237     1.6902     3.8754 H            1 BEP204   0.0000
    52 H25          4.0331     4.3982     4.6225 H            1 BEP204   0.0000
    53 H26          2.5004     6.2026     4.8066 H            1 BEP204   0.0000
    54 H27          0.5755     6.3186     3.3982 H            1 BEP204   0.0000
    55 H28          0.1510     4.5446     1.8407 H            1 BEP204   0.0000
    56 H29          1.6441     2.6953     1.7139 H            1 BEP204   0.0000
    57 H30          3.8748    -0.1859     0.0180 H            1 BEP204   0.0000
    58 H31          2.2741    -1.9433    -0.2378 H            1 BEP204   0.0000
    59 H32          0.6876    -2.3673     1.5006 H            1 BEP204   0.0000
    60 H33          0.7879    -1.1162     3.5416 H            1 BEP204   0.0000
    61 H34          2.3012     0.7210     3.7316 H            1 BEP204   0.0000
    62 H35          6.7697     3.1127    -1.0450 H            1 BEP204   0.0000
@<TRIPOS>BOND
     1    1    2       1
     2    1    4       1
     3    2    3       1
     4    2    5       1
     5    3    6       1
     6    4    7       1
     7    5   11       1
     8    5   14       1
     9    6   15       1
    10    6   22       1
    11    7    8       1
    12    8    9       1
    13    8   10       1
    14   11   12       1
    15   12   13       1
    16   13   14       1
    17   15   16       1
    18   16   17      ar
    19   16   21      ar
    20   17   18      ar
    21   18   19      ar
    22   19   20      ar
    23   20   21      ar
    24   22   23      ar
    25   22   27      ar
    26   23   24      ar
    27   24   25      ar
    28   25   26      ar
    29   26   27      ar
    30    1   28       1
    31    1   29       1
    32    2   30       1
    33    3   31       1
    34    3   32       1
    35    7   33       1
    36    7   34       1
    37    8   35       1
    38    9   36       1
    39    9   37       1
    40    9   38       1
    41   10   39       1
    42   10   40       1
    43   10   41       1
    44   11   42       1
    45   11   43       1
    46   12   44       1
    47   12   45       1
    48   13   46       1
    49   13   47       1
    50   14   48       1
    51   14   49       1
    52   15   50       1
    53   15   51       1
    54   17   52       1
    55   18   53       1
    56   19   54       1
    57   20   55       1
    58   21   56       1
    59   23   57       1
    60   24   58       1
    61   25   59       1
    62   26   60       1
    63   27   61       1
    64    5   62       1
@<TRIPOS>SUBSTRUCTURE
     1 BEP204      1 GROUP             4 A     BEP     0 **** BEP A 204
