@<TRIPOS>MOLECULE
1og4_NAI_1_ligand
   71    75     1     0     0
SMALL
NO_CHARGES


@<TRIPOS>ATOM
     1 PA          10.1620    36.5860     7.9580 P.3          1 NAI1227   0.0000
     2 O1A         10.6000    35.8230     9.1470 O.co2        1 NAI1227   0.0000
     3 O2A         10.7430    37.8720     7.5110 O.co2        1 NAI1227  -1.0000
     4 O5B         10.8420    35.6330     6.8530 O.3          1 NAI1227   0.0000
     5 C5B         12.2240    35.7930     6.5220 C.3          1 NAI1227   0.0000
     6 C4B         12.6380    34.7680     5.4630 C.3          1 NAI1227   0.0000
     7 O4B         14.0460    34.8510     5.1730 O.3          1 NAI1227   0.0000
     8 C3B         12.3850    33.3390     5.9430 C.3          1 NAI1227   0.0000
     9 O3B         11.0730    32.9320     5.5480 O.3          1 NAI1227   0.0000
    10 C2B         13.4300    32.5950     5.1150 C.3          1 NAI1227   0.0000
    11 O2B         13.0490    32.5830     3.7360 O.3          1 NAI1227   0.0000
    12 C1B         14.6180    33.5380     5.3170 C.3          1 NAI1227   0.0000
    13 N9A         15.1990    33.4100     6.6760 N.pl3        1 NAI1227   0.0000
    14 C8A         14.5920    33.6620     7.8350 C.2          1 NAI1227   0.0000
    15 N7A         15.4270    33.4290     8.8450 N.2          1 NAI1227   0.0000
    16 C5A         16.5830    33.0260     8.3260 C.ar         1 NAI1227   0.0000
    17 C6A         17.8080    32.6450     8.8600 C.ar         1 NAI1227   0.0000
    18 N6A         17.9930    32.6280    10.1770 N.pl3        1 NAI1227   0.0000
    19 N1A         18.8000    32.2890     8.0290 N.ar         1 NAI1227   0.0000
    20 C2A         18.6320    32.2930     6.7170 C.ar         1 NAI1227   0.0000
    21 N3A         17.4770    32.6470     6.1780 N.ar         1 NAI1227   0.0000
    22 C4A         16.4400    33.0160     6.9450 C.ar         1 NAI1227   0.0000
    23 O3           8.6870    36.3000     7.3790 O.3          1 NAI1227   0.0000
    24 PN           7.5900    35.5280     8.2700 P.3          1 NAI1227   0.0000
    25 O1N          8.1620    35.2180     9.6000 O.co2        1 NAI1227   0.0000
    26 O2N          7.0100    34.4220     7.4780 O.co2        1 NAI1227  -1.0000
    27 O5D          6.4590    36.6530     8.4880 O.3          1 NAI1227   0.0000
    28 C5D          5.7750    37.2080     7.3610 C.3          1 NAI1227   0.0000
    29 C4D          4.5660    38.0400     7.7980 C.3          1 NAI1227   0.0000
    30 O4D          3.6900    37.1540     8.5230 O.3          1 NAI1227   0.0000
    31 C3D          4.9660    39.1410     8.7820 C.3          1 NAI1227   0.0000
    32 O3D          4.0430    40.2330     8.7400 O.3          1 NAI1227   0.0000
    33 C2D          4.8560    38.4100    10.1170 C.3          1 NAI1227   0.0000
    34 O2D          4.6760    39.3320    11.1960 O.3          1 NAI1227   0.0000
    35 C1D          3.5510    37.6570     9.8640 C.3          1 NAI1227   0.0000
    36 N1N          3.2570    36.5910    10.8490 N.pl3        1 NAI1227   0.0000
    37 C2N          3.9130    35.3540    10.7710 C.2          1 NAI1227   0.0000
    38 C3N          3.5940    34.3430    11.6730 C.2          1 NAI1227   0.0000
    39 C7N          4.2760    32.9750    11.5790 C.2          1 NAI1227   0.0000
    40 O7N          3.8800    32.0230    12.2500 O.2          1 NAI1227   0.0000
    41 N7N          5.2930    32.9050    10.7240 N.am         1 NAI1227   0.0000
    42 C4N          2.6290    34.5710    12.6490 C.3          1 NAI1227   0.0000
    43 C5N          1.9760    35.7970    12.7370 C.2          1 NAI1227   0.0000
    44 C6N          2.2880    36.8110    11.8380 C.2          1 NAI1227   0.0000
    45 H5B1        12.7777    35.6602     7.3440 H            1 NAI1227   0.0000
    46 H5B2        12.3732    36.7151     6.1649 H            1 NAI1227   0.0000
    47 H4B         12.1181    34.9314     4.6245 H            1 NAI1227   0.0000
    48 H3B         12.5352    33.2360     6.9263 H            1 NAI1227   0.0000
    49 H5          10.4733    33.7313     5.5101 H            1 NAI1227   0.0000
    50 H2B         13.6100    31.6766     5.4672 H            1 NAI1227   0.0000
    51 H7          13.7397    32.0937     3.2036 H            1 NAI1227   0.0000
    52 H1B         15.3163    33.3794     4.6190 H            1 NAI1227   0.0000
    53 H8A         13.6486    33.9793     7.9317 H            1 NAI1227   0.0000
    54 H6A1        18.8773    32.3527    10.5542 H            1 NAI1227   0.0000
    55 H6A2        17.2478    32.8905    10.7900 H            1 NAI1227   0.0000
    56 H2A         19.3902    32.0241     6.1231 H            1 NAI1227   0.0000
    57 H5D1         5.4621    36.4637     6.7710 H            1 NAI1227   0.0000
    58 H5D2         6.4066    37.7933     6.8526 H            1 NAI1227   0.0000
    59 H4D          4.0982    38.4282     7.0040 H            1 NAI1227   0.0000
    60 H3D          5.9018    39.4519     8.6160 H            1 NAI1227   0.0000
    61 H17          4.3284    40.9360     9.3914 H            1 NAI1227   0.0000
    62 H2D          5.6255    37.7908    10.2734 H            1 NAI1227   0.0000
    63 H19          5.4573    39.9549    11.2360 H            1 NAI1227   0.0000
    64 H1D          2.7987    38.3157     9.8777 H            1 NAI1227   0.0000
    65 H2N          4.6082    35.1986    10.0692 H            1 NAI1227   0.0000
    66 H7N1         5.7892    32.0448    10.6066 H            1 NAI1227   0.0000
    67 H7N2         5.5612    33.7126    10.1988 H            1 NAI1227   0.0000
    68 H4N1         3.0759    34.4226    13.5312 H            1 NAI1227   0.0000
    69 H4N2         1.9192    33.8795    12.5144 H            1 NAI1227   0.0000
    70 H5N          1.2851    35.9481    13.4440 H            1 NAI1227   0.0000
    71 H6N          1.8227    37.6942    11.8968 H            1 NAI1227   0.0000
@<TRIPOS>BOND
     1    1    2      ar
     2    1    3      ar
     3    1    4       1
     4    1   23       1
     5    4    5       1
     6    5    6       1
     7    6    7       1
     8    6    8       1
     9    7   12       1
    10    8    9       1
    11    8   10       1
    12   10   11       1
    13   10   12       1
    14   12   13       1
    15   13   14       1
    16   13   22       1
    17   14   15       2
    18   15   16       1
    19   16   17      ar
    20   16   22      ar
    21   17   18       1
    22   17   19      ar
    23   19   20      ar
    24   20   21      ar
    25   21   22      ar
    26   23   24       1
    27   24   25      ar
    28   24   26      ar
    29   24   27       1
    30   27   28       1
    31   28   29       1
    32   29   30       1
    33   29   31       1
    34   30   35       1
    35   31   32       1
    36   31   33       1
    37   33   34       1
    38   33   35       1
    39   35   36       1
    40   36   37       1
    41   36   44       1
    42   37   38       2
    43   38   39       1
    44   38   42       1
    45   39   40       2
    46   39   41      am
    47   42   43       1
    48   43   44       2
    49   44   71       1
    50    5   45       1
    51    5   46       1
    52    6   47       1
    53    8   48       1
    54    9   49       1
    55   10   50       1
    56   11   51       1
    57   12   52       1
    58   14   53       1
    59   18   54       1
    60   18   55       1
    61   20   56       1
    62   43   70       1
    63   28   57       1
    64   28   58       1
    65   29   59       1
    66   31   60       1
    67   32   61       1
    68   33   62       1
    69   34   63       1
    70   35   64       1
    71   37   65       1
    72   41   66       1
    73   41   67       1
    74   42   68       1
    75   42   69       1
@<TRIPOS>SUBSTRUCTURE
     1 NAI1227     1 GROUP             4 A     NAI     0 **** NAI A1227
