@<TRIPOS>MOLECULE
4b0o_15F_1_ligand
   35    36     1     0     0
SMALL
NO_CHARGES


@<TRIPOS>ATOM
     1 CAR        -19.7980   -44.1860   -22.7110 C.ar         1 15F1307   0.0000
     2 CAK        -20.5170   -44.2230   -23.9020 C.ar         1 15F1307   0.0000
     3 CAM        -21.5400   -43.3170   -24.1430 C.ar         1 15F1307   0.0000
     4 CAJ        -20.0820   -43.2380   -21.7380 C.ar         1 15F1307   0.0000
     5 CAL        -21.1000   -42.3290   -21.9700 C.ar         1 15F1307   0.0000
     6 NAT        -21.8340   -42.3620   -23.1700 N.ar         1 15F1307   1.0000
     7 CAO        -22.9180   -41.3860   -23.3990 C.3          1 15F1307   0.0000
     8 CAS        -23.3840   -40.9240   -22.1790 C.ar         1 15F1307   0.0000
     9 CAH        -22.9880   -39.6710   -21.7100 C.ar         1 15F1307   0.0000
    10 CAF        -23.4560   -39.2200   -20.4800 C.ar         1 15F1307   0.0000
    11 CAE        -24.3170   -40.0280   -19.7390 C.ar         1 15F1307   0.0000
    12 CAG        -24.7170   -41.2790   -20.2000 C.ar         1 15F1307   0.0000
    13 CAI        -24.2470   -41.7240   -21.4300 C.ar         1 15F1307   0.0000
    14 CLB        -16.6150   -41.2130   -24.2190 Cl           1 15F1307   0.0000
    15 CAU        -16.3510   -42.9410   -24.3800 C.3          1 15F1307   0.0000
    16 CLC        -14.6250   -43.2640   -24.1390 Cl           1 15F1307   0.0000
    17 CLD        -16.8900   -43.4470   -26.0000 Cl           1 15F1307   0.0000
    18 CAQ        -17.1760   -43.6310   -23.2920 C.2          1 15F1307   0.0000
    19 NAA        -17.0420   -43.1070   -22.0700 N.2          1 15F1307   0.0000
    20 OAP        -17.8490   -44.7780   -23.6080 O.3          1 15F1307   0.0000
    21 CAN        -18.7620   -45.1040   -22.5460 C.3          1 15F1307   0.0000
    22 HAK        -20.2937   -44.9109   -24.5926 H            1 15F1307   0.0000
    23 HAM        -22.0569   -43.3482   -24.9985 H            1 15F1307   0.0000
    24 HAJ        -19.5608   -43.2120   -20.8849 H            1 15F1307   0.0000
    25 HAL        -21.3161   -41.6412   -21.2770 H            1 15F1307   0.0000
    26 HAO1       -23.6650   -41.8271   -23.8965 H            1 15F1307   0.0000
    27 HAO2       -22.5681   -40.6180   -23.9354 H            1 15F1307   0.0000
    28 HAH        -22.3722   -39.1012   -22.2541 H            1 15F1307   0.0000
    29 HAF        -23.1776   -38.3252   -20.1309 H            1 15F1307   0.0000
    30 HAE        -24.6549   -39.7015   -18.8563 H            1 15F1307   0.0000
    31 HAG        -25.3325   -41.8483   -19.6551 H            1 15F1307   0.0000
    32 HAI        -24.5277   -42.6184   -21.7783 H            1 15F1307   0.0000
    33 HAA        -16.4373   -42.3238   -21.9254 H            1 15F1307   0.0000
    34 HAN1       -19.0975   -46.0415   -22.6388 H            1 15F1307   0.0000
    35 HAN2       -18.3254   -44.9930   -21.6532 H            1 15F1307   0.0000
@<TRIPOS>BOND
     1    1    2      ar
     2    1    4      ar
     3    1   21       1
     4    2    3      ar
     5    3    6      ar
     6    4    5      ar
     7    5    6      ar
     8    6    7       1
     9    7    8       1
    10    8    9      ar
    11    8   13      ar
    12    9   10      ar
    13   10   11      ar
    14   11   12      ar
    15   12   13      ar
    16   14   15       1
    17   15   16       1
    18   15   17       1
    19   15   18       1
    20   18   19       2
    21   18   20       1
    22   20   21       1
    23    2   22       1
    24    3   23       1
    25    4   24       1
    26    5   25       1
    27    7   26       1
    28    7   27       1
    29    9   28       1
    30   10   29       1
    31   11   30       1
    32   12   31       1
    33   13   32       1
    34   19   33       1
    35   21   34       1
    36   21   35       1
@<TRIPOS>SUBSTRUCTURE
     1 15F1307     1 GROUP             4 A     15F     0 **** 15F A1307
