@<TRIPOS>MOLECULE
3hia_PC_1_ligand
   19    18     1     0     0
SMALL
NO_CHARGES


@<TRIPOS>ATOM
     1 O2         -16.8620    -7.5410   -20.6960 O.2          1 PC130    0.0000
     2 C1         -17.8580    -7.0730   -20.2660 C.2          1 PC130    0.0000
     3 C2         -18.3590    -5.6770   -20.6230 C.3          1 PC130    0.0000
     4 N1         -17.6300    -4.8150   -21.5510 N.4          1 PC130    1.0000
     5 C3         -18.1660    -4.2420   -22.7840 C.3          1 PC130    0.0000
     6 C4         -16.3220    -5.3480   -21.9050 C.3          1 PC130    0.0000
     7 C5         -17.5040    -3.6670   -20.6990 C.3          1 PC130    0.0000
     8 H1         -18.4029    -7.6226   -19.6328 H            1 PC130    0.0000
     9 H2         -18.4239    -5.1725   -19.7620 H            1 PC130    0.0000
    10 H3         -19.2737    -5.7964   -21.0091 H            1 PC130    0.0000
    11 H4         -17.4601    -3.6922   -23.2305 H            1 PC130    0.0000
    12 H5         -18.4522    -4.9785   -23.3969 H            1 PC130    0.0000
    13 H6         -18.9525    -3.6633   -22.5683 H            1 PC130    0.0000
    14 H7         -15.8676    -4.7224   -22.5391 H            1 PC130    0.0000
    15 H8         -15.7673    -5.4462   -21.0788 H            1 PC130    0.0000
    16 H9         -16.4328    -6.2415   -22.3402 H            1 PC130    0.0000
    17 H10        -17.0114    -2.9444   -21.1840 H            1 PC130    0.0000
    18 H11        -18.4139    -3.3382   -20.4460 H            1 PC130    0.0000
    19 H12        -16.9989    -3.9185   -19.8734 H            1 PC130    0.0000
@<TRIPOS>BOND
     1    1    2       2
     2    2    3       1
     3    3    4       1
     4    4    5       1
     5    4    6       1
     6    4    7       1
     7    2    8       1
     8    3    9       1
     9    3   10       1
    10    5   11       1
    11    5   12       1
    12    5   13       1
    13    6   14       1
    14    6   15       1
    15    6   16       1
    16    7   17       1
    17    7   18       1
    18    7   19       1
@<TRIPOS>SUBSTRUCTURE
     1 PC130       1 GROUP             4 A      PC     0 ****  PC A 130
