@<TRIPOS>MOLECULE
1f8f_NAD_1_ligand
   71    75     1     0     0
SMALL
NO_CHARGES


@<TRIPOS>ATOM
     1 PA          22.5840    28.7710    11.9280 P.3          1 NAD375   0.0000
     2 O1A         21.6600    27.6680    12.3440 O.co2        1 NAD375   0.0000
     3 O2A         23.9910    28.6780    12.3430 O.co2        1 NAD375  -1.0000
     4 O5B         22.4200    29.0740    10.3790 O.3          1 NAD375   0.0000
     5 C5B         23.2060    29.8720     9.4610 C.3          1 NAD375   0.0000
     6 C4B         23.6710    29.0380     8.2760 C.3          1 NAD375   0.0000
     7 O4B         24.5680    29.8500     7.4460 O.3          1 NAD375   0.0000
     8 C3B         24.4420    27.7440     8.5890 C.3          1 NAD375   0.0000
     9 O3B         23.7360    26.5860     8.1630 O.3          1 NAD375   0.0000
    10 C2B         25.7580    27.8380     7.8210 C.3          1 NAD375   0.0000
    11 O2B         26.1640    26.6360     7.1540 O.3          1 NAD375   0.0000
    12 C1B         25.4370    28.9400     6.7970 C.3          1 NAD375   0.0000
    13 N9A         26.5990    29.6710     6.3020 N.pl3        1 NAD375   0.0000
    14 C8A         27.5740    30.3250     7.0100 C.2          1 NAD375   0.0000
    15 N7A         28.4930    30.8920     6.2280 N.2          1 NAD375   0.0000
    16 C5A         28.0850    30.5670     4.9460 C.ar         1 NAD375   0.0000
    17 C6A         28.6200    30.8550     3.6770 C.ar         1 NAD375   0.0000
    18 N6A         29.7160    31.5730     3.4490 N.pl3        1 NAD375   0.0000
    19 N1A         27.9470    30.3860     2.5950 N.ar         1 NAD375   0.0000
    20 C2A         26.8120    29.6470     2.7920 C.ar         1 NAD375   0.0000
    21 N3A         26.2400    29.3330     3.9160 N.ar         1 NAD375   0.0000
    22 C4A         26.9290    29.8130     4.9670 C.ar         1 NAD375   0.0000
    23 O3          21.9350    30.1370    12.5380 O.3          1 NAD375   0.0000
    24 PN          20.3810    30.4840    12.6220 P.3          1 NAD375   0.0000
    25 O1N         19.6780    30.0460    11.4020 O.co2        1 NAD375   0.0000
    26 O2N         19.8270    29.9180    13.8600 O.co2        1 NAD375  -1.0000
    27 O5D         20.4990    32.1040    12.7160 O.3          1 NAD375   0.0000
    28 C5D         20.7310    32.8540    11.5120 C.3          1 NAD375   0.0000
    29 C4D         21.2580    34.2280    11.7150 C.3          1 NAD375   0.0000
    30 O4D         20.1980    35.2090    11.9540 O.3          1 NAD375   0.0000
    31 C3D         22.3750    34.5470    12.7160 C.3          1 NAD375   0.0000
    32 O3D         23.1210    35.6770    12.2240 O.3          1 NAD375   0.0000
    33 C2D         21.5340    35.0470    13.8990 C.3          1 NAD375   0.0000
    34 O2D         22.2780    35.7140    14.9070 O.3          1 NAD375   0.0000
    35 C1D         20.6410    35.9880    13.0770 C.3          1 NAD375   0.0000
    36 N1N         19.4150    36.2960    13.8060 N.pl3        1 NAD375   0.0000
    37 C2N         18.8000    37.4570    13.4640 C.2          1 NAD375   0.0000
    38 C3N         17.6060    37.7710    14.0840 C.2          1 NAD375   0.0000
    39 C7N         16.7940    39.0740    13.7560 C.2          1 NAD375   0.0000
    40 O7N         15.7540    39.3040    14.3710 O.2          1 NAD375   0.0000
    41 N7N         17.3390    39.8690    12.7670 N.am         1 NAD375   0.0000
    42 C4N         17.0170    36.8830    15.0320 C.2          1 NAD375   0.0000
    43 C5N         17.4480    35.5540    14.8270 C.2          1 NAD375   0.0000
    44 C6N         18.6410    35.1780    14.2460 C.3          1 NAD375   0.0000
    45 H5B1        24.0056    30.2316     9.9420 H            1 NAD375   0.0000
    46 H5B2        22.6480    30.6319     9.1275 H            1 NAD375   0.0000
    47 H4B         22.8692    28.7992     7.7282 H            1 NAD375   0.0000
    48 H3B         24.6254    27.6875     9.5704 H            1 NAD375   0.0000
    49 H5          23.5888    26.6300     7.1749 H            1 NAD375   0.0000
    50 H2B         26.4856    28.1471     8.4335 H            1 NAD375   0.0000
    51 H7          25.7888    26.6261     6.2271 H            1 NAD375   0.0000
    52 H1B         24.9569    28.5311     6.0209 H            1 NAD375   0.0000
    53 H8A         27.5938    30.3719     8.0087 H            1 NAD375   0.0000
    54 H6A1        30.0256    31.7287     2.5110 H            1 NAD375   0.0000
    55 H6A2        30.2305    31.9572     4.2156 H            1 NAD375   0.0000
    56 H2A         26.3656    29.3048     1.9652 H            1 NAD375   0.0000
    57 H5D1        19.8635    32.9249    11.0196 H            1 NAD375   0.0000
    58 H5D2        21.3902    32.3489    10.9549 H            1 NAD375   0.0000
    59 H4D         21.6387    34.4833    10.8262 H            1 NAD375   0.0000
    60 H3D         22.9475    33.7581    12.9392 H            1 NAD375   0.0000
    61 H17         23.8544    35.8977    12.8670 H            1 NAD375   0.0000
    62 H2D         20.9958    34.3010    14.2912 H            1 NAD375   0.0000
    63 H19         21.8351    35.5781    15.7932 H            1 NAD375   0.0000
    64 H1D         21.1270    36.8145    12.7928 H            1 NAD375   0.0000
    65 H2N         19.2005    38.0685    12.7816 H            1 NAD375   0.0000
    66 H7N1        16.8822    40.7173    12.4990 H            1 NAD375   0.0000
    67 H7N2        18.1904    39.5964    12.3189 H            1 NAD375   0.0000
    68 H4N         16.3805    37.1653    15.7497 H            1 NAD375   0.0000
    69 H5N         16.8360    34.8231    15.1289 H            1 NAD375   0.0000
    70 H6N1        19.1751    34.6627    14.9162 H            1 NAD375   0.0000
    71 H6N2        18.4436    34.5951    13.4578 H            1 NAD375   0.0000
@<TRIPOS>BOND
     1    1    2      ar
     2    1    3      ar
     3    1    4       1
     4    1   23       1
     5    4    5       1
     6    5    6       1
     7    6    7       1
     8    6    8       1
     9    7   12       1
    10    8    9       1
    11    8   10       1
    12   10   11       1
    13   10   12       1
    14   12   13       1
    15   13   14       1
    16   13   22       1
    17   14   15       2
    18   15   16       1
    19   16   17      ar
    20   16   22      ar
    21   17   18       1
    22   17   19      ar
    23   19   20      ar
    24   20   21      ar
    25   21   22      ar
    26   23   24       1
    27   24   25      ar
    28   24   26      ar
    29   24   27       1
    30   27   28       1
    31   28   29       1
    32   29   30       1
    33   29   31       1
    34   30   35       1
    35   31   32       1
    36   31   33       1
    37   33   34       1
    38   33   35       1
    39   35   36       1
    40   36   37       1
    41   36   44       1
    42   37   38       2
    43   38   39       1
    44   38   42       1
    45   39   40       2
    46   39   41      am
    47   42   43       2
    48   43   44       1
    49   44   71       1
    50    5   45       1
    51    5   46       1
    52    6   47       1
    53    8   48       1
    54    9   49       1
    55   10   50       1
    56   11   51       1
    57   12   52       1
    58   14   53       1
    59   18   54       1
    60   18   55       1
    61   20   56       1
    62   44   70       1
    63   28   57       1
    64   28   58       1
    65   29   59       1
    66   31   60       1
    67   32   61       1
    68   33   62       1
    69   34   63       1
    70   35   64       1
    71   37   65       1
    72   41   66       1
    73   41   67       1
    74   42   68       1
    75   43   69       1
@<TRIPOS>SUBSTRUCTURE
     1 NAD375      1 GROUP             4 A     NAD     0 **** NAD A 375
