@<TRIPOS>MOLECULE
4cw5_FMN_2_ligand
   50    52     1     0     0
SMALL
NO_CHARGES


@<TRIPOS>ATOM
     1 N1          57.5730    77.7350    17.9360 N.2          1 FMN1753   0.0000
     2 C2          57.2780    78.6340    16.9360 C.2          1 FMN1753   0.0000
     3 O2          56.1110    78.8260    16.6150 O.2          1 FMN1753   0.0000
     4 N3          58.2860    79.3210    16.2990 N.pl3        1 FMN1753   0.0000
     5 C4          59.5960    79.1060    16.6650 C.2          1 FMN1753   0.0000
     6 O4          60.4980    79.7170    16.0990 O.2          1 FMN1753   0.0000
     7 C4A         59.8960    78.2000    17.6700 C.2          1 FMN1753   0.0000
     8 N5          61.2060    77.9980    18.0310 N.2          1 FMN1753   0.0000
     9 C5A         61.5120    77.0880    19.0200 C.ar         1 FMN1753   0.0000
    10 C6          62.8420    76.8810    19.3650 C.ar         1 FMN1753   0.0000
    11 C7          63.1800    75.9780    20.3630 C.ar         1 FMN1753   0.0000
    12 C7M         64.6370    75.7900    20.6860 C.3          1 FMN1753   0.0000
    13 C8          62.1670    75.2770    21.0100 C.ar         1 FMN1753   0.0000
    14 C8M         62.4590    74.2860    22.0930 C.3          1 FMN1753   0.0000
    15 C9          60.8410    75.4870    20.6590 C.ar         1 FMN1753   0.0000
    16 C9A         60.5010    76.3890    19.6620 C.ar         1 FMN1753   0.0000
    17 N10         59.1760    76.6010    19.3090 N.pl3        1 FMN1753   0.0000
    18 C10         58.8780    77.5110    18.3120 C.2          1 FMN1753   0.0000
    19 C1'         58.0690    75.8550    20.0020 C.3          1 FMN1753   0.0000
    20 C2'         57.9620    74.4360    19.4640 C.3          1 FMN1753   0.0000
    21 O2'         57.6660    74.4980    18.0880 O.3          1 FMN1753   0.0000
    22 C3'         56.8690    73.6490    20.1830 C.3          1 FMN1753   0.0000
    23 O3'         55.6110    74.2480    19.9520 O.3          1 FMN1753   0.0000
    24 C4'         57.1340    73.5920    21.6810 C.3          1 FMN1753   0.0000
    25 O4'         58.5200    73.4500    21.9270 O.3          1 FMN1753   0.0000
    26 C5'         56.3960    72.4320    22.3270 C.3          1 FMN1753   0.0000
    27 O5'         56.7620    72.4350    23.6870 O.3          1 FMN1753   0.0000
    28 P           57.6370    71.2440    24.3200 P.3          1 FMN1753   0.0000
    29 O1P         57.3530    71.1140    25.7970 O.co2        1 FMN1753   0.0000
    30 O2P         57.3370    69.9400    23.6200 O.co2        1 FMN1753  -1.0000
    31 O3P         59.0770    71.6090    24.0900 O.co2        1 FMN1753  -1.0000
    32 H1          58.0681    79.9736    15.5733 H            1 FMN1753   0.0000
    33 H2          63.5618    77.3871    18.8900 H            1 FMN1753   0.0000
    34 H7M1        64.7318    75.1156    21.4183 H            1 FMN1753   0.0000
    35 H7M2        65.1201    75.4681    19.8718 H            1 FMN1753   0.0000
    36 H7M3        65.0278    76.6613    20.9827 H            1 FMN1753   0.0000
    37 H8M1        61.6015    73.8941    22.4263 H            1 FMN1753   0.0000
    38 H8M2        63.0398    73.5572    21.7302 H            1 FMN1753   0.0000
    39 H8M3        62.9308    74.7446    22.8461 H            1 FMN1753   0.0000
    40 H9          60.1200    74.9805    21.1319 H            1 FMN1753   0.0000
    41 H1'1        57.2038    76.3317    19.8465 H            1 FMN1753   0.0000
    42 H1'2        58.2593    75.8211    20.9831 H            1 FMN1753   0.0000
    43 H2'         58.8381    73.9706    19.5902 H            1 FMN1753   0.0000
    44 H13         58.3959    74.9884    17.6118 H            1 FMN1753   0.0000
    45 H3'         56.8531    72.7163    19.8226 H            1 FMN1753   0.0000
    46 H15         54.8989    73.5463    19.9726 H            1 FMN1753   0.0000
    47 H4'         56.8190    74.4454    22.0964 H            1 FMN1753   0.0000
    48 H17         58.6573    72.9451    22.7792 H            1 FMN1753   0.0000
    49 H5'1        56.6650    71.5694    21.8985 H            1 FMN1753   0.0000
    50 H5'2        55.4081    72.5563    22.2346 H            1 FMN1753   0.0000
@<TRIPOS>BOND
     1    1    2       1
     2    1   18       2
     3    2    3       2
     4    2    4       1
     5    4    5       1
     6    5    6       2
     7    5    7       1
     8    7    8       2
     9    7   18       1
    10    8    9       1
    11    9   10      ar
    12    9   16      ar
    13   10   11      ar
    14   11   12       1
    15   11   13      ar
    16   13   14       1
    17   13   15      ar
    18   15   16      ar
    19   16   17       1
    20   17   18       1
    21   17   19       1
    22   19   20       1
    23   20   21       1
    24   20   22       1
    25   22   23       1
    26   22   24       1
    27   24   25       1
    28   24   26       1
    29   26   27       1
    30   27   28       1
    31   28   29      ar
    32   28   30      ar
    33   28   31      ar
    34    4   32       1
    35   10   33       1
    36   12   34       1
    37   12   35       1
    38   12   36       1
    39   14   37       1
    40   14   38       1
    41   14   39       1
    42   15   40       1
    43   19   41       1
    44   19   42       1
    45   20   43       1
    46   21   44       1
    47   22   45       1
    48   23   46       1
    49   24   47       1
    50   25   48       1
    51   26   49       1
    52   26   50       1
@<TRIPOS>SUBSTRUCTURE
     1 FMN1753     1 GROUP             4 B     FMN     0 **** FMN B1753
