@<TRIPOS>MOLECULE
3ihk_TPP_3_ligand
   45    46     1     0     0
SMALL
NO_CHARGES


@<TRIPOS>ATOM
     1 N1'         10.3380    49.2990    28.4880 N.pl3        1 TPP219   0.0000
     2 C2'         10.4920    50.1920    27.3310 C.3          1 TPP219   0.0000
     3 CM2         10.6900    49.3330    26.0790 C.3          1 TPP219   0.0000
     4 N3'         11.6640    51.0530    27.5310 N.2          1 TPP219   0.0000
     5 C4'         11.5900    51.7290    28.6790 C.2          1 TPP219   0.0000
     6 N4'         12.2280    52.8850    28.8110 N.pl3        1 TPP219   0.0000
     7 C5'         10.8440    51.2350    29.7360 C.2          1 TPP219   0.0000
     8 C6'         10.2040    50.0090    29.6040 C.2          1 TPP219   0.0000
     9 C7'         10.6750    51.9810    31.0630 C.3          1 TPP219   0.0000
    10 N3          11.9300    51.9280    31.8230 N.pl3        1 TPP219   0.0000
    11 C2          12.9410    50.8780    31.5820 C.3          1 TPP219   0.0000
    12 S1          14.3750    51.4670    32.5450 S.3          1 TPP219   0.0000
    13 C5          13.4600    52.6890    33.3900 C.2          1 TPP219   0.0000
    14 C4          12.2360    52.8510    32.7330 C.2          1 TPP219   0.0000
    15 CM4         11.2970    54.0170    33.0440 C.3          1 TPP219   0.0000
    16 C6          14.0100    53.4500    34.5940 C.3          1 TPP219   0.0000
    17 C7          13.8070    52.6420    35.8780 C.3          1 TPP219   0.0000
    18 O7          14.4400    53.3330    36.9570 O.3          1 TPP219   0.0000
    19 PA          14.4400    52.7120    38.4440 P.3          1 TPP219   0.0000
    20 O1A         13.9410    51.3190    38.3900 O.co2        1 TPP219   0.0000
    21 O2A         15.7540    52.9710    39.0740 O.co2        1 TPP219  -1.0000
    22 O3A         13.3490    53.6110    39.2160 O.3          1 TPP219   0.0000
    23 PB          11.7800    53.2980    39.0380 P.3          1 TPP219   0.0000
    24 O1B         11.4420    51.8650    39.1900 O.co2        1 TPP219   0.0000
    25 O2B         11.0110    54.2190    40.1120 O.co2        1 TPP219  -1.0000
    26 O3B         11.3800    53.8590    37.5820 O.co2        1 TPP219  -1.0000
    27 H1'         10.3345    48.3000    28.4424 H            1 TPP219   0.0000
    28 H2'          9.6724    50.7556    27.2278 H            1 TPP219   0.0000
    29 HM21        10.7966    49.9263    25.2811 H            1 TPP219   0.0000
    30 HM22        11.5091    48.7697    26.1873 H            1 TPP219   0.0000
    31 HM23         9.8936    48.7420    25.9509 H            1 TPP219   0.0000
    32 H4'1        12.1723    53.3914    29.6715 H            1 TPP219   0.0000
    33 H4'2        12.7645    53.2498    28.0500 H            1 TPP219   0.0000
    34 H6'          9.6399    49.6590    30.3519 H            1 TPP219   0.0000
    35 H7'1         9.9455    51.5515    31.5953 H            1 TPP219   0.0000
    36 H7'2        10.4370    52.9349    30.8802 H            1 TPP219   0.0000
    37 H11         13.1640    50.8093    30.6096 H            1 TPP219   0.0000
    38 H12         12.6241    49.9899    31.9148 H            1 TPP219   0.0000
    39 HM41        11.7055    54.5946    33.7508 H            1 TPP219   0.0000
    40 HM42        11.1507    54.5573    32.2154 H            1 TPP219   0.0000
    41 HM43        10.4207    53.6617    33.3693 H            1 TPP219   0.0000
    42 H16         13.5322    54.3246    34.6767 H            1 TPP219   0.0000
    43 H17         14.9871    53.6153    34.4603 H            1 TPP219   0.0000
    44 H18         14.2151    51.7351    35.7733 H            1 TPP219   0.0000
    45 H19         12.8293    52.5479    36.0657 H            1 TPP219   0.0000
@<TRIPOS>BOND
     1    1    2       1
     2    1    8       1
     3    2    3       1
     4    2    4       1
     5    4    5       2
     6    5    6       1
     7    5    7       1
     8    7    8       2
     9    7    9       1
    10    9   10       1
    11   10   11       1
    12   10   14       1
    13   11   12       1
    14   12   13       1
    15   13   14       2
    16   13   16       1
    17   14   15       1
    18   16   17       1
    19   17   18       1
    20   18   19       1
    21   19   20      ar
    22   19   21      ar
    23   19   22       1
    24   22   23       1
    25   23   24      ar
    26   23   25      ar
    27   23   26      ar
    28    1   27       1
    29    2   28       1
    30    3   29       1
    31    3   30       1
    32    3   31       1
    33    6   32       1
    34    6   33       1
    35    8   34       1
    36    9   35       1
    37    9   36       1
    38   11   37       1
    39   11   38       1
    40   15   39       1
    41   15   40       1
    42   15   41       1
    43   16   42       1
    44   16   43       1
    45   17   44       1
    46   17   45       1
@<TRIPOS>SUBSTRUCTURE
     1 TPP219      1 GROUP             4 C     TPP     0 **** TPP C 219
