@<TRIPOS>MOLECULE
1qsr_ACO_1_ligand
   85    87     1     0     0
SMALL
NO_CHARGES


@<TRIPOS>ATOM
     1 N1A         42.5300    30.5590    58.1120 N.ar         1 ACO401   0.0000
     2 C2A         42.3130    31.1960    56.8860 C.ar         1 ACO401   0.0000
     3 N3A         42.8480    30.8460    55.6970 N.ar         1 ACO401   0.0000
     4 C4A         43.6600    29.7700    55.7770 C.ar         1 ACO401   0.0000
     5 C5A         43.9940    28.9970    56.9390 C.ar         1 ACO401   0.0000
     6 C6A         43.3620    29.4500    58.2140 C.ar         1 ACO401   0.0000
     7 N6A         43.5690    28.8620    59.3450 N.pl3        1 ACO401   0.0000
     8 N7A         44.8430    27.9810    56.6470 N.2          1 ACO401   0.0000
     9 C8A         45.0560    28.0910    55.3080 C.2          1 ACO401   0.0000
    10 N9A         44.3680    29.1600    54.7310 N.pl3        1 ACO401   0.0000
    11 C1B         44.4260    29.6290    53.3040 C.3          1 ACO401   0.0000
    12 C2B         45.7090    30.4080    53.0300 C.3          1 ACO401   0.0000
    13 O2B         45.5240    31.7100    53.5510 O.3          1 ACO401   0.0000
    14 C3B         45.8200    30.3710    51.5080 C.3          1 ACO401   0.0000
    15 O3B         45.1090    31.3780    50.8740 O.3          1 ACO401   0.0000
    16 P3B         45.8080    31.7960    49.4140 P.3          1 ACO401   0.0000
    17 O7A         47.2380    32.3730    49.8030 O.co2        1 ACO401   0.0000
    18 O8A         45.0000    32.9860    48.7430 O.co2        1 ACO401  -1.0000
    19 O9A         45.9540    30.4930    48.4950 O.co2        1 ACO401  -1.0000
    20 C4B         45.3970    28.9150    51.2140 C.3          1 ACO401   0.0000
    21 O4B         44.5390    28.4930    52.3900 O.3          1 ACO401   0.0000
    22 C5B         46.5710    27.9450    51.0580 C.3          1 ACO401   0.0000
    23 O5B         46.5300    26.9780    52.1510 O.3          1 ACO401   0.0000
    24 P1A         47.6790    25.8300    52.1710 P.3          1 ACO401   0.0000
    25 O1A         48.9880    26.5020    52.4580 O.co2        1 ACO401   0.0000
    26 O2A         47.5930    24.9770    50.9290 O.co2        1 ACO401  -1.0000
    27 O3A         47.3020    25.0170    53.4080 O.3          1 ACO401   0.0000
    28 P2A         48.0860    24.4370    54.7260 P.3          1 ACO401   0.0000
    29 O4A         48.6640    25.5060    55.6120 O.co2        1 ACO401   0.0000
    30 O5A         49.1500    23.4010    54.4240 O.co2        1 ACO401  -1.0000
    31 O6A         46.8030    23.6770    55.4130 O.3          1 ACO401   0.0000
    32 CBP         45.1120    23.7380    57.1540 C.3          1 ACO401   0.0000
    33 CCP         45.6210    24.3590    55.8140 C.3          1 ACO401   0.0000
    34 CDP         43.8240    24.4520    57.6880 C.3          1 ACO401   0.0000
    35 CEP         44.7890    22.2760    56.7500 C.3          1 ACO401   0.0000
    36 CAP         46.2850    23.8930    58.2300 C.3          1 ACO401   0.0000
    37 OAP         46.5160    25.2960    58.5330 O.3          1 ACO401   0.0000
    38 C9P         45.9940    23.1920    59.5560 C.2          1 ACO401   0.0000
    39 O9P         46.3330    21.8900    59.7530 O.2          1 ACO401   0.0000
    40 N8P         45.3970    23.9480    60.4540 N.am         1 ACO401   0.0000
    41 C7P         45.0200    23.5310    61.8060 C.3          1 ACO401   0.0000
    42 C6P         43.9870    22.4120    61.7190 C.3          1 ACO401   0.0000
    43 C5P         42.6500    22.9330    61.2530 C.2          1 ACO401   0.0000
    44 O5P         42.2430    24.1420    61.4680 O.2          1 ACO401   0.0000
    45 N4P         41.9410    22.0210    60.6140 N.am         1 ACO401   0.0000
    46 C3P         40.5480    22.2190    60.0290 C.3          1 ACO401   0.0000
    47 C2P         39.5880    22.1590    61.2170 C.3          1 ACO401   0.0000
    48 S1P         37.8560    21.7200    60.7640 S.3          1 ACO401   0.0000
    49 C           37.8710    19.9890    60.2380 C.2          1 ACO401   0.0000
    50 O           38.7680    19.4400    60.8300 O.2          1 ACO401   0.0000
    51 CH3         36.7160    19.4430    60.1410 C.3          1 ACO401   0.0000
    52 H2A         41.7021    31.9877    56.8906 H            1 ACO401   0.0000
    53 H6A1        44.1722    28.0657    59.3916 H            1 ACO401   0.0000
    54 H6A2        43.1261    29.2029    60.1742 H            1 ACO401   0.0000
    55 H8A         45.6447    27.4702    54.7903 H            1 ACO401   0.0000
    56 H1B         43.6232    30.1822    53.0816 H            1 ACO401   0.0000
    57 H2B         46.4957    29.9614    53.4562 H            1 ACO401   0.0000
    58 H7          46.3477    32.2536    53.3899 H            1 ACO401   0.0000
    59 H3B         46.7847    30.4701    51.2639 H            1 ACO401   0.0000
    60 H4B         44.8436    28.8963    50.3813 H            1 ACO401   0.0000
    61 H5B1        47.4324    28.4519    51.0897 H            1 ACO401   0.0000
    62 H5B2        46.4978    27.4666    50.1829 H            1 ACO401   0.0000
    63 HCP1        44.9191    24.2583    55.1088 H            1 ACO401   0.0000
    64 HCP2        45.8219    25.3294    55.9481 H            1 ACO401   0.0000
    65 HDP1        43.5356    24.0228    58.5439 H            1 ACO401   0.0000
    66 HDP2        44.0217    25.4188    57.8499 H            1 ACO401   0.0000
    67 HDP3        43.0926    24.3702    57.0110 H            1 ACO401   0.0000
    68 HEP1        44.4488    21.7773    57.5472 H            1 ACO401   0.0000
    69 HEP2        44.0916    22.2745    56.0334 H            1 ACO401   0.0000
    70 HEP3        45.6183    21.8335    56.4089 H            1 ACO401   0.0000
    71 HAP         47.1236    23.5085    57.8441 H            1 ACO401   0.0000
    72 H21         47.2022    25.6639    57.9055 H            1 ACO401   0.0000
    73 H8P         45.1826    24.8883    60.1896 H            1 ACO401   0.0000
    74 H7P1        44.6294    24.3086    62.2987 H            1 ACO401   0.0000
    75 H7P2        45.8295    23.2013    62.2918 H            1 ACO401   0.0000
    76 H6P1        43.8781    21.9986    62.6230 H            1 ACO401   0.0000
    77 H6P2        44.3100    21.7204    61.0729 H            1 ACO401   0.0000
    78 H4P         42.3560    21.1179    60.5038 H            1 ACO401   0.0000
    79 H3P1        40.3383    21.4928    59.3743 H            1 ACO401   0.0000
    80 H3P2        40.4841    23.1070    59.5736 H            1 ACO401   0.0000
    81 H2P1        39.5792    23.0559    61.6592 H            1 ACO401   0.0000
    82 H2P2        39.9276    21.4733    61.8608 H            1 ACO401   0.0000
    83 HH31        36.8201    18.4930    59.8466 H            1 ACO401   0.0000
    84 HH32        36.2596    19.4683    61.0304 H            1 ACO401   0.0000
    85 HH33        36.1669    19.9416    59.4703 H            1 ACO401   0.0000
@<TRIPOS>BOND
     1    1    2      ar
     2    1    6      ar
     3    2    3      ar
     4    3    4      ar
     5    4    5      ar
     6    4   10       1
     7    5    6      ar
     8    5    8       1
     9    6    7       1
    10    8    9       2
    11    9   10       1
    12   10   11       1
    13   11   12       1
    14   11   21       1
    15   12   13       1
    16   12   14       1
    17   14   15       1
    18   14   20       1
    19   15   16       1
    20   16   17      ar
    21   16   18      ar
    22   16   19      ar
    23   20   21       1
    24   20   22       1
    25   22   23       1
    26   23   24       1
    27   24   25      ar
    28   24   26      ar
    29   24   27       1
    30   27   28       1
    31   28   29      ar
    32   28   30      ar
    33   28   31       1
    34   31   33       1
    35   32   33       1
    36   32   34       1
    37   32   35       1
    38   32   36       1
    39   36   37       1
    40   36   38       1
    41   38   39       2
    42   38   40      am
    43   40   41       1
    44   41   42       1
    45   42   43       1
    46   43   44       2
    47   43   45      am
    48   45   46       1
    49   46   47       1
    50   47   48       1
    51   48   49       1
    52   49   50       2
    53   49   51       1
    54    2   52       1
    55    7   53       1
    56    7   54       1
    57    9   55       1
    58   11   56       1
    59   12   57       1
    60   13   58       1
    61   14   59       1
    62   51   85       1
    63   51   84       1
    64   20   60       1
    65   22   61       1
    66   22   62       1
    67   51   83       1
    68   47   82       1
    69   33   63       1
    70   33   64       1
    71   34   65       1
    72   34   66       1
    73   34   67       1
    74   35   68       1
    75   35   69       1
    76   35   70       1
    77   36   71       1
    78   37   72       1
    79   40   73       1
    80   41   74       1
    81   41   75       1
    82   42   76       1
    83   42   77       1
    84   45   78       1
    85   46   79       1
    86   46   80       1
    87   47   81       1
@<TRIPOS>SUBSTRUCTURE
     1 ACO401      1 GROUP             4 A     ACO     0 **** ACO A 401
