@<TRIPOS>MOLECULE
5e8y_STU_1_ligand
   62    69     1     0     0
SMALL
NO_CHARGES


@<TRIPOS>ATOM
     1 O4          17.6740    -2.1510     5.2110 O.3          1 STU601   0.0000
     2 C25         16.7870    -1.4430     4.3080 C.3          1 STU601   0.0000
     3 C24         17.2760    -0.0610     3.8910 C.3          1 STU601   0.0000
     4 C23         18.5880     0.2400     4.6390 C.3          1 STU601   0.0000
     5 C22         18.3600     0.0080     6.1310 C.3          1 STU601   0.0000
     6 C21         18.2200    -1.5340     6.3750 C.3          1 STU601   0.0000
     7 C26         19.5570    -2.2290     6.5540 C.3          1 STU601   0.0000
     8 N2          17.2880    -1.8530     7.4810 N.pl3        1 STU601   0.0000
     9 C18         15.9230    -2.0620     7.2900 C.ar         1 STU601   0.0000
    10 C19         15.0920    -1.9030     6.1360 C.ar         1 STU601   0.0000
    11 C6          13.6850    -2.0460     6.2360 C.ar         1 STU601   0.0000
    12 C7          13.1510    -2.3910     7.4910 C.ar         1 STU601   0.0000
    13 C10         13.9730    -2.5870     8.5990 C.ar         1 STU601   0.0000
    14 C11         15.3360    -2.4060     8.5220 C.ar         1 STU601   0.0000
    15 C12         16.3760    -2.4080     9.5110 C.ar         1 STU601   0.0000
    16 C17         17.5680    -2.0320     8.8550 C.ar         1 STU601   0.0000
    17 C16         18.7440    -1.8270     9.5700 C.ar         1 STU601   0.0000
    18 C15         18.7090    -1.9870    10.9450 C.ar         1 STU601   0.0000
    19 C14         17.5560    -2.4090    11.5930 C.ar         1 STU601   0.0000
    20 C13         16.3940    -2.6350    10.8850 C.ar         1 STU601   0.0000
    21 C9          13.1510    -3.0040     9.7790 C.3          1 STU601   0.0000
    22 N1          11.8070    -2.8990     9.2420 N.am         1 STU601   0.0000
    23 C8          11.7620    -2.5570     7.9350 C.2          1 STU601   0.0000
    24 O5          10.7530    -2.4500     7.2710 O.2          1 STU601   0.0000
    25 C5          13.1530    -1.7320     4.9100 C.ar         1 STU601   0.0000
    26 C20         14.2620    -1.4240     4.0920 C.ar         1 STU601   0.0000
    27 C1          14.1050    -1.0830     2.7510 C.ar         1 STU601   0.0000
    28 C2          12.8190    -1.0690     2.2120 C.ar         1 STU601   0.0000
    29 C3          11.7150    -1.3840     2.9960 C.ar         1 STU601   0.0000
    30 C4          11.8720    -1.7070     4.3460 C.ar         1 STU601   0.0000
    31 N3          15.4390    -1.5520     4.8350 N.pl3        1 STU601   0.0000
    32 O6          17.1640     0.7250     6.4860 O.3          1 STU601   0.0000
    33 C27         17.1120     1.2140     7.8380 C.3          1 STU601   0.0000
    34 N4          19.1690     1.5580     4.3860 N.4          1 STU601   1.0000
    35 C28         20.6220     1.6340     4.6030 C.3          1 STU601   0.0000
    36 H1          16.7836    -1.9840     3.4670 H            1 STU601   0.0000
    37 H2          16.5882     0.6255     4.1269 H            1 STU601   0.0000
    38 H3          17.4388    -0.0444     2.9045 H            1 STU601   0.0000
    39 H4          19.2585    -0.4377     4.3371 H            1 STU601   0.0000
    40 H5          19.1358     0.3643     6.6517 H            1 STU601   0.0000
    41 H6          20.0209    -1.8573     7.3582 H            1 STU601   0.0000
    42 H7          19.4087    -3.2101     6.6785 H            1 STU601   0.0000
    43 H8          20.1226    -2.0776     5.7433 H            1 STU601   0.0000
    44 H9          19.5909    -1.5712     9.1038 H            1 STU601   0.0000
    45 H10         19.5305    -1.7948    11.4818 H            1 STU601   0.0000
    46 H11         17.5680    -2.5505    12.5829 H            1 STU601   0.0000
    47 H12         15.5722    -2.9588    11.3539 H            1 STU601   0.0000
    48 H13         13.2845    -2.3868    10.5544 H            1 STU601   0.0000
    49 H14         13.3612    -3.9408    10.0586 H            1 STU601   0.0000
    50 H15         10.9871    -3.0649     9.7900 H            1 STU601   0.0000
    51 H16         14.8977    -0.8530     2.1865 H            1 STU601   0.0000
    52 H17         12.6893    -0.8295     1.2498 H            1 STU601   0.0000
    53 H18         10.8010    -1.3793     2.5902 H            1 STU601   0.0000
    54 H19         11.0723    -1.9196     4.9074 H            1 STU601   0.0000
    55 H20         16.2477     1.6948     7.9855 H            1 STU601   0.0000
    56 H21         17.1782     0.4447     8.4735 H            1 STU601   0.0000
    57 H22         17.8740     1.8424     7.9947 H            1 STU601   0.0000
    58 H23         18.7270     2.2166     4.9950 H            1 STU601   0.0000
    59 H24         20.9398     2.5623     4.4099 H            1 STU601   0.0000
    60 H25         20.8297     1.4015     5.5531 H            1 STU601   0.0000
    61 H26         21.0842     0.9899     3.9935 H            1 STU601   0.0000
    62 H27         18.9815     1.8051     3.4353 H            1 STU601   0.0000
@<TRIPOS>BOND
     1    1    2       1
     2    1    6       1
     3    2    3       1
     4    2   31       1
     5    3    4       1
     6    4    5       1
     7    4   34       1
     8    5    6       1
     9    5   32       1
    10    6    7       1
    11    6    8       1
    12    8    9       1
    13    8   16       1
    14    9   10      ar
    15    9   14      ar
    16   10   11      ar
    17   10   31       1
    18   11   12      ar
    19   11   25       1
    20   12   13      ar
    21   12   23       1
    22   13   14      ar
    23   13   21       1
    24   14   15       1
    25   15   16      ar
    26   15   20      ar
    27   16   17      ar
    28   17   18      ar
    29   18   19      ar
    30   19   20      ar
    31   21   22       1
    32   22   23      am
    33   23   24       2
    34   25   26      ar
    35   25   30      ar
    36   26   27      ar
    37   26   31       1
    38   27   28      ar
    39   28   29      ar
    40   29   30      ar
    41   32   33       1
    42   34   35       1
    43    2   36       1
    44    3   37       1
    45    3   38       1
    46    4   39       1
    47    5   40       1
    48    7   41       1
    49    7   42       1
    50    7   43       1
    51   17   44       1
    52   18   45       1
    53   19   46       1
    54   20   47       1
    55   21   48       1
    56   21   49       1
    57   22   50       1
    58   27   51       1
    59   28   52       1
    60   29   53       1
    61   30   54       1
    62   33   55       1
    63   33   56       1
    64   33   57       1
    65   34   58       1
    66   35   59       1
    67   35   60       1
    68   35   61       1
    69   34   62       1
@<TRIPOS>SUBSTRUCTURE
     1 STU601      1 GROUP             4 A     STU     0 **** STU A 601
