@<TRIPOS>MOLECULE
4z9g_1Q5_3_ligand
   54    55     1     0     0
SMALL
USER_CHARGES


@<TRIPOS>ATOM
     1 C18        -35.6290    94.3190   -22.8270 C.3          1 1Q51205   0.0000
     2 C20        -36.2730    97.9930   -26.4080 C.3          1 1Q51205   0.0000
     3 C1         -36.8390    97.4580   -19.2290 C.ar         1 1Q51205   0.0000
     4 C17        -36.7580    99.9750   -22.6280 C.3          1 1Q51205   0.0000
     5 C16        -36.4550    98.5080   -22.7260 C.ar         1 1Q51205   0.0000
     6 C15        -36.0910    97.8700   -23.9890 C.ar         1 1Q51205   0.0000
     7 C14        -35.8340    96.5110   -23.9700 C.ar         1 1Q51205   0.0000
     8 C13        -35.9160    95.7850   -22.8020 C.ar         1 1Q51205   0.0000
     9 C11        -36.5130    97.6440   -21.5500 C.ar         1 1Q51205   0.0000
    10 C6         -38.0520    96.7760   -18.7540 C.ar         1 1Q51205   0.0000
    11 C7         -36.7900    95.2250   -15.5530 C.3          1 1Q51205   0.0000
    12 C8         -39.3080    96.8590   -19.5650 C.3          1 1Q51205   0.0000
    13 C9         -34.3740    98.0440   -18.8380 C.3          1 1Q51205   0.0000
    14 C5         -38.0060    96.0640   -17.5690 C.ar         1 1Q51205   0.0000
    15 C4         -36.8270    96.0000   -16.8320 C.ar         1 1Q51205   0.0000
    16 C3         -35.6640    96.6310   -17.2330 C.ar         1 1Q51205   0.0000
    17 C2         -35.6280    97.3610   -18.4020 C.ar         1 1Q51205   0.0000
    18 C24        -33.8770    98.5820   -26.7250 C.3          1 1Q51205   0.0000
    19 C23        -35.2300    98.4840   -27.3850 C.3          1 1Q51205   0.0000
    20 C21        -37.6380    98.3700   -26.9480 C.3          1 1Q51205   0.0000
    21 C22        -38.6890    98.2640   -25.8740 C.3          1 1Q51205   0.0000
    22 N19        -36.0200    98.5960   -25.1200 N.pl3        1 1Q51205   0.0000
    23 N12        -36.2470    96.3480   -21.6380 N.ar         1 1Q51205   0.0000
    24 O10        -36.8380    98.1840   -20.3710 O.3          1 1Q51205   0.0000
    25 H1         -35.7316    93.9435   -21.9059 H            1 1Q51205   0.0000
    26 H2         -36.2698    93.8644   -23.4456 H            1 1Q51205   0.0000
    27 H3         -34.6935    94.1679   -23.1463 H            1 1Q51205   0.0000
    28 H4         -36.2106    96.9982   -26.3273 H            1 1Q51205   0.0000
    29 H5         -36.9830   100.2064   -21.6815 H            1 1Q51205   0.0000
    30 H6         -35.9585   100.5006   -22.9187 H            1 1Q51205   0.0000
    31 H7         -37.5344   100.1952   -23.2185 H            1 1Q51205   0.0000
    32 H8         -35.5841    96.0469   -24.8198 H            1 1Q51205   0.0000
    33 H9         -35.8745    95.2825   -15.1548 H            1 1Q51205   0.0000
    34 H10        -37.4566    95.6066   -14.9126 H            1 1Q51205   0.0000
    35 H11        -37.0142    94.2679   -15.7366 H            1 1Q51205   0.0000
    36 H12        -40.0345    96.3459   -19.1078 H            1 1Q51205   0.0000
    37 H13        -39.5829    97.8161   -19.6568 H            1 1Q51205   0.0000
    38 H14        -39.1455    96.4704   -20.4720 H            1 1Q51205   0.0000
    39 H15        -33.6526    97.8773   -18.1658 H            1 1Q51205   0.0000
    40 H16        -34.0906    97.6847   -19.7271 H            1 1Q51205   0.0000
    41 H17        -34.5389    99.0274   -18.9131 H            1 1Q51205   0.0000
    42 H18        -38.8243    95.5927   -17.2400 H            1 1Q51205   0.0000
    43 H19        -34.8410    96.5572   -16.6697 H            1 1Q51205   0.0000
    44 H20        -33.2048    98.9082   -27.3896 H            1 1Q51205   0.0000
    45 H21        -33.9257    99.2223   -25.9584 H            1 1Q51205   0.0000
    46 H22        -33.6037    97.6805   -26.3895 H            1 1Q51205   0.0000
    47 H23        -35.4962    99.3873   -27.7215 H            1 1Q51205   0.0000
    48 H24        -35.1742    97.8455   -28.1526 H            1 1Q51205   0.0000
    49 H25        -37.8744    97.7539   -27.6994 H            1 1Q51205   0.0000
    50 H26        -37.6082    99.3110   -27.2852 H            1 1Q51205   0.0000
    51 H27        -39.5793    98.5169   -26.2527 H            1 1Q51205   0.0000
    52 H28        -38.7258    97.3238   -25.5353 H            1 1Q51205   0.0000
    53 H29        -38.4596    98.8809   -25.1211 H            1 1Q51205   0.0000
    54 H30        -35.7886    99.5675   -25.0679 H            1 1Q51205   0.0000
@<TRIPOS>BOND
     1    1    8       1
     2    2   19       1
     3    2   20       1
     4    2   22       1
     5    3   10      ar
     6    3   17      ar
     7    3   24       1
     8    4    5       1
     9    5    6      ar
    10    5    9      ar
    11    6    7      ar
    12    6   22       1
    13    7    8      ar
    14    8   23      ar
    15    9   23      ar
    16    9   24       1
    17   10   12       1
    18   10   14      ar
    19   11   15       1
    20   13   17       1
    21   14   15      ar
    22   15   16      ar
    23   16   17      ar
    24   18   19       1
    25   20   21       1
    26    1   25       1
    27    1   26       1
    28    1   27       1
    29    2   28       1
    30    4   29       1
    31    4   30       1
    32    4   31       1
    33    7   32       1
    34   11   33       1
    35   11   34       1
    36   11   35       1
    37   12   36       1
    38   12   37       1
    39   12   38       1
    40   13   39       1
    41   13   40       1
    42   13   41       1
    43   14   42       1
    44   16   43       1
    45   18   44       1
    46   18   45       1
    47   18   46       1
    48   19   47       1
    49   19   48       1
    50   20   49       1
    51   20   50       1
    52   21   51       1
    53   21   52       1
    54   21   53       1
    55   22   54       1
@<TRIPOS>SUBSTRUCTURE
     1 1Q51205     1 GROUP             4 C     1Q5     0 **** 1Q5 C1205
