@<TRIPOS>MOLECULE
2avx_HTF_1_ligand
   37    37     1     0     0
SMALL
NO_CHARGES


@<TRIPOS>ATOM
     1 C8          -4.1370    -9.1090    -7.5170 C.3          1 HTF172   0.0000
     2 C7          -3.5230    -7.7270    -7.2820 C.3          1 HTF172   0.0000
     3 C6          -3.1600    -7.5200    -5.8030 C.3          1 HTF172   0.0000
     4 C5          -2.8550    -6.0450    -5.4740 C.3          1 HTF172   0.0000
     5 C4          -1.6730    -5.8340    -4.5020 C.3          1 HTF172   0.0000
     6 C3          -0.3620    -5.4310    -5.2070 C.3          1 HTF172   0.0000
     7 C2           0.2420    -6.5470    -6.0770 C.3          1 HTF172   0.0000
     8 C1           1.0850    -6.0380    -7.2420 C.2          1 HTF172   0.0000
     9 O1           0.5440    -5.8410    -8.3300 O.2          1 HTF172   0.0000
    10 N            2.3930    -5.8600    -7.0350 N.am         1 HTF172   0.0000
    11 CA           3.4120    -5.5490    -8.0570 C.3          1 HTF172   0.0000
    12 C            4.7480    -4.9900    -7.5670 C.2          1 HTF172   0.0000
    13 O            5.2730    -5.2930    -6.4970 O.2          1 HTF172   0.0000
    14 OD           5.2260    -4.1360    -8.4550 O.3          1 HTF172   0.0000
    15 CG           4.3760    -4.0610    -9.5840 C.3          1 HTF172   0.0000
    16 CB           3.0000    -4.4610    -9.0520 C.3          1 HTF172   0.0000
    17 H1          -4.3619    -9.2135    -8.4858 H            1 HTF172   0.0000
    18 H2          -3.4814    -9.8150    -7.2490 H            1 HTF172   0.0000
    19 H3          -4.9689    -9.2016    -6.9698 H            1 HTF172   0.0000
    20 H4          -4.1822    -7.0269    -7.5565 H            1 HTF172   0.0000
    21 H5          -2.6948    -7.6403    -7.8357 H            1 HTF172   0.0000
    22 H6          -2.3524    -8.0701    -5.5904 H            1 HTF172   0.0000
    23 H7          -3.9278    -7.8229    -5.2384 H            1 HTF172   0.0000
    24 H8          -3.6726    -5.6416    -5.0631 H            1 HTF172   0.0000
    25 H9          -2.6437    -5.5719    -6.3293 H            1 HTF172   0.0000
    26 H10         -1.5158    -6.6873    -4.0048 H            1 HTF172   0.0000
    27 H11         -1.9197    -5.1121    -3.8555 H            1 HTF172   0.0000
    28 H12          0.3073    -5.1785    -4.5082 H            1 HTF172   0.0000
    29 H13         -0.5479    -4.6411    -5.7914 H            1 HTF172   0.0000
    30 H14         -0.5066    -7.0970    -6.4473 H            1 HTF172   0.0000
    31 H15          0.8209    -7.1197    -5.4966 H            1 HTF172   0.0000
    32 H16          2.7143    -5.9462    -6.0920 H            1 HTF172   0.0000
    33 HA           3.5975    -6.3853    -8.5729 H            1 HTF172   0.0000
    34 HG1          4.6776    -4.6945   -10.2966 H            1 HTF172   0.0000
    35 HG2          4.3567    -3.1310    -9.9511 H            1 HTF172   0.0000
    36 HB1          2.5401    -3.6974    -8.5988 H            1 HTF172   0.0000
    37 HB2          2.4120    -4.8222    -9.7757 H            1 HTF172   0.0000
@<TRIPOS>BOND
     1    1    2       1
     2    2    3       1
     3    3    4       1
     4    4    5       1
     5    5    6       1
     6    6    7       1
     7    7    8       1
     8    8    9       2
     9    8   10      am
    10   10   11       1
    11   11   12       1
    12   11   16       1
    13   12   13       2
    14   12   14       1
    15   14   15       1
    16   15   16       1
    17    1   17       1
    18    1   18       1
    19    1   19       1
    20    2   20       1
    21    2   21       1
    22    3   22       1
    23    3   23       1
    24    4   24       1
    25    4   25       1
    26    5   26       1
    27    5   27       1
    28    6   28       1
    29    6   29       1
    30    7   30       1
    31    7   31       1
    32   10   32       1
    33   11   33       1
    34   15   34       1
    35   15   35       1
    36   16   36       1
    37   16   37       1
@<TRIPOS>SUBSTRUCTURE
     1 HTF172      1 GROUP             4 A     HTF     0 **** HTF A 172
