@<TRIPOS>MOLECULE
4du6_GTP_4_ligand
   45    47     1     0     0
SMALL
NO_CHARGES


@<TRIPOS>ATOM
     1 PG          74.9760    31.3470    -9.8320 P.3          1 GTP302   0.0000
     2 O1G         74.6970    31.2110    -8.3520 O.co2        1 GTP302   0.0000
     3 O2G         74.2060    30.2720   -10.5610 O.co2        1 GTP302  -1.0000
     4 O3G         76.4190    31.1510   -10.1450 O.co2        1 GTP302  -1.0000
     5 O3B         74.5250    32.8210   -10.3210 O.3          1 GTP302   0.0000
     6 PB          75.4990    34.1120   -10.2450 P.3          1 GTP302   0.0000
     7 O1B         74.7790    35.2950   -10.8600 O.co2        1 GTP302   0.0000
     8 O2B         75.9710    34.4140    -8.8430 O.co2        1 GTP302  -1.0000
     9 O3A         76.7650    33.7380   -11.1600 O.3          1 GTP302   0.0000
    10 PA          76.9670    34.4760   -12.5750 P.3          1 GTP302   0.0000
    11 O1A         75.7020    34.2970   -13.3800 O.co2        1 GTP302   0.0000
    12 O2A         77.2740    35.9440   -12.3850 O.co2        1 GTP302  -1.0000
    13 O5'         78.2210    33.7240   -13.2640 O.3          1 GTP302   0.0000
    14 C5'         79.3170    33.2180   -12.5230 C.3          1 GTP302   0.0000
    15 C4'         79.5790    31.7890   -12.9780 C.3          1 GTP302   0.0000
    16 O4'         80.9550    31.4780   -13.1430 O.3          1 GTP302   0.0000
    17 C3'         79.0200    30.7930   -11.9690 C.3          1 GTP302   0.0000
    18 O3'         78.1340    29.9560   -12.6620 O.3          1 GTP302   0.0000
    19 C2'         80.2230    29.9900   -11.5220 C.3          1 GTP302   0.0000
    20 O2'         79.8790    28.6570   -11.2290 O.3          1 GTP302   0.0000
    21 C1'         81.0820    30.1130   -12.7660 C.3          1 GTP302   0.0000
    22 N9          82.4690    29.6750   -12.5800 N.pl3        1 GTP302   0.0000
    23 C8          83.2550    29.7220   -11.4590 C.2          1 GTP302   0.0000
    24 N7          84.4720    29.1960   -11.7570 N.2          1 GTP302   1.0000
    25 C5          84.4590    28.8180   -13.0570 C.2          1 GTP302   0.0000
    26 C6          85.4060    28.2340   -13.8850 C.2          1 GTP302   0.0000
    27 O6          86.5130    27.9680   -13.4410 O.2          1 GTP302   0.0000
    28 N1          85.0900    27.9510   -15.2010 N.pl3        1 GTP302   0.0000
    29 C2          83.8330    28.2600   -15.6890 C.2          1 GTP302   0.0000
    30 N2          83.5010    28.0050   -16.9490 N.pl3        1 GTP302   0.0000
    31 N3          82.8950    28.8350   -14.8630 N.2          1 GTP302   0.0000
    32 C4          83.2040    29.1070   -13.5760 C.2          1 GTP302   0.0000
    33 H5'1        79.0994    33.2281   -11.5470 H            1 GTP302   0.0000
    34 H5'2        80.1269    33.7803   -12.6897 H            1 GTP302   0.0000
    35 H4'         79.1158    31.6461   -13.8527 H            1 GTP302   0.0000
    36 H3'         78.5736    31.2525   -11.2012 H            1 GTP302   0.0000
    37 H5          77.4147    29.6447   -12.0409 H            1 GTP302   0.0000
    38 H2'         80.6682    30.4229   -10.7382 H            1 GTP302   0.0000
    39 H7          78.9340    28.6204   -10.9039 H            1 GTP302   0.0000
    40 H1'         80.6717    29.5517   -13.4848 H            1 GTP302   0.0000
    41 H9          82.9788    30.0836   -10.5685 H            1 GTP302   0.0000
    42 H10         85.7686    27.5239   -15.7986 H            1 GTP302   0.0000
    43 H11         82.5868    28.2363   -17.2818 H            1 GTP302   0.0000
    44 H12         84.1651    27.5816   -17.5652 H            1 GTP302   0.0000
    45 H13         85.2426    29.1042   -11.1263 H            1 GTP302   0.0000
@<TRIPOS>BOND
     1    1    2      ar
     2    1    3      ar
     3    1    4      ar
     4    1    5       1
     5    5    6       1
     6    6    7      ar
     7    6    8      ar
     8    6    9       1
     9    9   10       1
    10   10   11      ar
    11   10   12      ar
    12   10   13       1
    13   13   14       1
    14   14   15       1
    15   15   16       1
    16   15   17       1
    17   16   21       1
    18   17   18       1
    19   17   19       1
    20   19   20       1
    21   19   21       1
    22   21   22       1
    23   22   23       1
    24   22   32       1
    25   23   24       2
    26   24   25       1
    27   25   26       1
    28   25   32       2
    29   26   27       2
    30   26   28       1
    31   28   29       1
    32   29   30       1
    33   29   31       2
    34   31   32       1
    35   30   44       1
    36   30   43       1
    37   28   42       1
    38   23   41       1
    39   14   33       1
    40   14   34       1
    41   15   35       1
    42   17   36       1
    43   18   37       1
    44   19   38       1
    45   20   39       1
    46   21   40       1
    47   24   45       1
@<TRIPOS>SUBSTRUCTURE
     1 GTP302      1 GROUP             4 D     GTP     0 **** GTP D 302
