@<TRIPOS>MOLECULE
3dol_GWI_1_ligand
   59    61     1     0     0
SMALL
NO_CHARGES


@<TRIPOS>ATOM
     1 C1          -3.0440   -35.5100    22.6320 C.ar         1 GWI999   0.0000
     2 C2          -2.8040   -35.6740    24.1100 C.ar         1 GWI999   0.0000
     3 C3          -2.0640   -36.7340    24.5540 C.ar         1 GWI999   0.0000
     4 C6          -2.5030   -36.4400    21.7710 C.ar         1 GWI999   0.0000
     5 C4          -1.4910   -37.7170    23.6180 C.ar         1 GWI999   0.0000
     6 C5          -1.6960   -37.5860    22.2870 C.ar         1 GWI999   0.0000
     7 CL          -0.5580   -39.0210    24.2440 Cl           1 GWI999   0.0000
     8 C7          -3.3860   -34.6780    25.0620 C.2          1 GWI999   0.0000
     9 O1          -4.5210   -34.2630    24.8590 O.2          1 GWI999   0.0000
    10 C8          -2.6300   -34.1550    26.2820 C.ar         1 GWI999   0.0000
    11 C9          -1.2510   -33.8320    26.1350 C.ar         1 GWI999   0.0000
    12 C10         -0.4860   -33.3560    27.2190 C.ar         1 GWI999   0.0000
    13 C11         -1.0940   -33.1860    28.4880 C.ar         1 GWI999   0.0000
    14 C12         -2.4770   -33.5050    28.6600 C.ar         1 GWI999   0.0000
    15 C13         -3.2470   -33.9880    27.5580 C.ar         1 GWI999   0.0000
    16 CL1          1.2070   -32.9830    26.9760 Cl           1 GWI999   0.0000
    17 O2          -3.7870   -34.4250    22.2370 O.3          1 GWI999   0.0000
    18 C15         -4.3720   -34.3030    20.9160 C.3          1 GWI999   0.0000
    19 C16         -5.7290   -34.9650    21.0420 C.2          1 GWI999   0.0000
    20 O3          -6.1800   -35.4410    19.9960 O.2          1 GWI999   0.0000
    21 N1          -6.3470   -35.0030    22.2640 N.am         1 GWI999   0.0000
    22 C17         -7.3980   -35.7580    22.7260 C.ar         1 GWI999   0.0000
    23 C18         -8.2650   -35.2320    23.8650 C.ar         1 GWI999   0.0000
    24 C23         -8.0190   -33.8720    24.4990 C.3          1 GWI999   0.0000
    25 C19         -9.2930   -36.0000    24.3280 C.ar         1 GWI999   0.0000
    26 C20         -9.5970   -37.3490    23.7480 C.ar         1 GWI999   0.0000
    27 C21         -8.8290   -37.8180    22.7350 C.ar         1 GWI999   0.0000
    28 C22         -7.7080   -36.9970    22.2220 C.ar         1 GWI999   0.0000
    29 N3         -12.1870   -37.9040    23.4180 N.am         1 GWI999   0.0000
    30 C14        -13.1090   -36.9470    23.7110 C.2          1 GWI999   0.0000
    31 C24        -14.4370   -36.9700    22.9740 C.3          1 GWI999   0.0000
    32 S          -10.9390   -38.3180    24.3940 S.o2         1 GWI999   0.0000
    33 O4         -11.2090   -37.8690    25.7670 O.2          1 GWI999   0.0000
    34 C25        -15.6150   -36.4600    23.8580 C.3          1 GWI999   0.0000
    35 O6         -12.9120   -36.0710    24.5430 O.2          1 GWI999   0.0000
    36 O5         -10.6490   -39.7370    24.3410 O.2          1 GWI999   0.0000
    37 C26         -3.0810   -33.3370    29.9510 C.1          1 GWI999   0.0000
    38 N2          -3.5460   -33.2080    30.9960 N.1          1 GWI999   0.0000
    39 H1          -1.9081   -36.8447    25.5356 H            1 GWI999   0.0000
    40 H2          -2.6528   -36.3463    20.7867 H            1 GWI999   0.0000
    41 H3          -1.3088   -38.2538    21.6513 H            1 GWI999   0.0000
    42 H4          -0.8152   -33.9455    25.2421 H            1 GWI999   0.0000
    43 H5          -0.5578   -32.8443    29.2599 H            1 GWI999   0.0000
    44 H6          -4.2148   -34.2083    27.6802 H            1 GWI999   0.0000
    45 H7          -3.8105   -34.7738    20.2355 H            1 GWI999   0.0000
    46 H8          -4.4699   -33.3413    20.6598 H            1 GWI999   0.0000
    47 H9          -5.9664   -34.3701    22.9382 H            1 GWI999   0.0000
    48 H10         -8.6910   -33.7152    25.2227 H            1 GWI999   0.0000
    49 H11         -7.0981   -33.8473    24.8881 H            1 GWI999   0.0000
    50 H12         -8.1061   -33.1592    23.8031 H            1 GWI999   0.0000
    51 H13         -9.8599   -35.6535    25.0754 H            1 GWI999   0.0000
    52 H14         -9.0183   -38.7149    22.3353 H            1 GWI999   0.0000
    53 H15         -7.1520   -37.3615    21.4750 H            1 GWI999   0.0000
    54 H16        -12.2778   -38.3874    22.5473 H            1 GWI999   0.0000
    55 H17        -14.6311   -37.9092    22.6908 H            1 GWI999   0.0000
    56 H18        -14.3659   -36.3860    22.1654 H            1 GWI999   0.0000
    57 H19        -16.4650   -36.4934    23.3323 H            1 GWI999   0.0000
    58 H20        -15.7005   -37.0413    24.6672 H            1 GWI999   0.0000
    59 H21        -15.4353   -35.5181    24.1418 H            1 GWI999   0.0000
@<TRIPOS>BOND
     1    1    2      ar
     2    1    4      ar
     3    1   17       1
     4    2    3      ar
     5    2    8       1
     6    3    5      ar
     7    4    6      ar
     8    5    6      ar
     9    5    7       1
    10    8    9       2
    11    8   10       1
    12   10   11      ar
    13   10   15      ar
    14   11   12      ar
    15   12   13      ar
    16   12   16       1
    17   13   14      ar
    18   14   15      ar
    19   14   37       1
    20   17   18       1
    21   18   19       1
    22   19   20       2
    23   19   21      am
    24   21   22       1
    25   22   23      ar
    26   22   28      ar
    27   23   24       1
    28   23   25      ar
    29   25   26      ar
    30   26   27      ar
    31   26   32       1
    32   27   28      ar
    33   29   30      am
    34   29   32       1
    35   30   31       1
    36   30   35       2
    37   31   34       1
    38   32   33       2
    39   32   36       2
    40   37   38       3
    41    3   39       1
    42    4   40       1
    43    6   41       1
    44   11   42       1
    45   13   43       1
    46   15   44       1
    47   18   45       1
    48   18   46       1
    49   21   47       1
    50   24   48       1
    51   24   49       1
    52   24   50       1
    53   25   51       1
    54   27   52       1
    55   28   53       1
    56   29   54       1
    57   31   55       1
    58   31   56       1
    59   34   57       1
    60   34   58       1
    61   34   59       1
@<TRIPOS>SUBSTRUCTURE
     1 GWI999      1 GROUP             4 A     GWI     0 **** GWI A 999
