@<TRIPOS>MOLECULE
5jsc_FAD_2_ligand
   84    89     1     0     0
SMALL
NO_CHARGES


@<TRIPOS>ATOM
     1 PA           1.1000    18.3270    32.5480 P.3          1 FAD500   0.0000
     2 O1A          1.1130    19.2140    31.3610 O.co2        1 FAD500   0.0000
     3 O2A          1.3350    19.0050    33.8710 O.co2        1 FAD500  -1.0000
     4 O5B         -0.2760    17.4900    32.6050 O.3          1 FAD500   0.0000
     5 C5B         -0.5890    16.7320    33.7890 C.3          1 FAD500   0.0000
     6 C4B         -1.8730    15.9890    33.5250 C.3          1 FAD500   0.0000
     7 O4B         -2.9350    16.9370    33.2990 O.3          1 FAD500   0.0000
     8 C3B         -1.8930    15.1500    32.2610 C.3          1 FAD500   0.0000
     9 O3B         -1.2040    13.9190    32.4430 O.3          1 FAD500   0.0000
    10 C2B         -3.3980    14.9760    32.0270 C.3          1 FAD500   0.0000
    11 O2B         -3.9050    13.8740    32.7790 O.3          1 FAD500   0.0000
    12 C1B         -3.9650    16.3060    32.5570 C.3          1 FAD500   0.0000
    13 N9A         -4.4120    17.2390    31.5230 N.pl3        1 FAD500   0.0000
    14 C8A         -3.6400    17.8330    30.5590 C.2          1 FAD500   0.0000
    15 N7A         -4.2910    18.6820    29.7990 N.2          1 FAD500   0.0000
    16 C5A         -5.5840    18.6410    30.2970 C.ar         1 FAD500   0.0000
    17 C6A         -6.7600    19.3250    29.9350 C.ar         1 FAD500   0.0000
    18 N6A         -6.8180    20.2340    28.9560 N.pl3        1 FAD500   0.0000
    19 N1A         -7.8820    19.0600    30.6370 N.ar         1 FAD500   0.0000
    20 C2A         -7.8220    18.1730    31.6390 C.ar         1 FAD500   0.0000
    21 N3A         -6.7720    17.4700    32.0760 N.ar         1 FAD500   0.0000
    22 C4A         -5.6760    17.7540    31.3590 C.ar         1 FAD500   0.0000
    23 N1           8.5730    15.1560    25.5900 N.2          1 FAD500   0.0000
    24 C2           9.3520    15.5590    24.5270 C.2          1 FAD500   0.0000
    25 O2           9.3140    16.7210    24.0810 O.2          1 FAD500   0.0000
    26 N3          10.2110    14.6600    23.9330 N.pl3        1 FAD500   0.0000
    27 C4          10.3850    13.3400    24.3010 C.2          1 FAD500   0.0000
    28 O4          11.2480    12.6510    23.7640 O.2          1 FAD500   0.0000
    29 C4X          9.5500    12.9140    25.4070 C.2          1 FAD500   0.0000
    30 N5           9.7030    11.7020    25.8620 N.2          1 FAD500   0.0000
    31 C5X          9.0490    11.3590    27.0390 C.ar         1 FAD500   0.0000
    32 C6           9.3180    10.1170    27.6240 C.ar         1 FAD500   0.0000
    33 C7           8.7620     9.7640    28.8500 C.ar         1 FAD500   0.0000
    34 C7M          9.0960     8.4260    29.4680 C.3          1 FAD500   0.0000
    35 C8           7.9010    10.6630    29.5000 C.ar         1 FAD500   0.0000
    36 C8M          7.2840    10.3280    30.8330 C.3          1 FAD500   0.0000
    37 C9           7.6180    11.8890    28.9110 C.ar         1 FAD500   0.0000
    38 C9A          8.1890    12.2500    27.6970 C.ar         1 FAD500   0.0000
    39 N10          7.9950    13.5290    27.1310 N.pl3        1 FAD500   0.0000
    40 C10          8.6820    13.9030    26.0000 C.2          1 FAD500   0.0000
    41 C1'          7.2220    14.5210    27.8880 C.3          1 FAD500   0.0000
    42 C2'          5.7190    14.3710    27.6930 C.3          1 FAD500   0.0000
    43 O2'          5.3490    14.8400    26.3990 O.3          1 FAD500   0.0000
    44 C3'          4.9660    15.1650    28.7590 C.3          1 FAD500   0.0000
    45 O3'          5.1920    14.5100    30.0000 O.3          1 FAD500   0.0000
    46 C4'          3.4630    15.2630    28.5020 C.3          1 FAD500   0.0000
    47 O4'          3.2480    16.1050    27.3720 O.3          1 FAD500   0.0000
    48 C5'          2.7020    15.8000    29.6960 C.3          1 FAD500   0.0000
    49 O5'          3.2630    17.0730    30.0750 O.3          1 FAD500   0.0000
    50 P            3.5870    17.2380    31.6440 P.3          1 FAD500   0.0000
    51 O1P          4.4540    16.1380    32.1320 O.co2        1 FAD500   0.0000
    52 O2P          4.1690    18.6090    31.8270 O.co2        1 FAD500  -1.0000
    53 O3P          2.1840    17.1740    32.3870 O.3          1 FAD500   0.0000
    54 H5B1        -0.7051    17.3481    34.5681 H            1 FAD500   0.0000
    55 H5B2         0.1469    16.0835    33.9837 H            1 FAD500   0.0000
    56 H4B         -2.0970    15.4151    34.3127 H            1 FAD500   0.0000
    57 H3B         -1.4859    15.6615    31.5043 H            1 FAD500   0.0000
    58 H5          -1.2766    13.6345    33.3989 H            1 FAD500   0.0000
    59 H2B         -3.5975    14.8657    31.0533 H            1 FAD500   0.0000
    60 H7          -4.2996    13.1987    32.1559 H            1 FAD500   0.0000
    61 H1B         -4.7312    16.1101    33.1691 H            1 FAD500   0.0000
    62 H8A         -2.6661    17.6367    30.4447 H            1 FAD500   0.0000
    63 H6A1        -7.6842    20.6871    28.7451 H            1 FAD500   0.0000
    64 H6A2        -5.9952    20.4607    28.4348 H            1 FAD500   0.0000
    65 H2A         -8.6803    18.0149    32.1272 H            1 FAD500   0.0000
    66 H13         10.7584    14.9937    23.1655 H            1 FAD500   0.0000
    67 H14          9.9200     9.4720    27.1533 H            1 FAD500   0.0000
    68 H7M1         8.6165     8.3329    30.3406 H            1 FAD500   0.0000
    69 H7M2         8.8101     7.6930    28.8507 H            1 FAD500   0.0000
    70 H7M3        10.0823     8.3667    29.6216 H            1 FAD500   0.0000
    71 H8M1         6.7056    11.0867    31.1327 H            1 FAD500   0.0000
    72 H8M2         6.7294     9.5005    30.7451 H            1 FAD500   0.0000
    73 H8M3         8.0075    10.1744    31.5060 H            1 FAD500   0.0000
    74 H21          6.9932    12.5219    29.3683 H            1 FAD500   0.0000
    75 H1'1         7.4937    15.4352    27.5872 H            1 FAD500   0.0000
    76 H1'2         7.4304    14.4144    28.8602 H            1 FAD500   0.0000
    77 H2'          5.4744    13.4046    27.7722 H            1 FAD500   0.0000
    78 H25          4.4163    15.1995    26.4288 H            1 FAD500   0.0000
    79 H3'          5.3477    16.0881    28.8055 H            1 FAD500   0.0000
    80 H27          5.1668    15.1814    30.7407 H            1 FAD500   0.0000
    81 H4'          3.1165    14.3495    28.2886 H            1 FAD500   0.0000
    82 H29          3.1495    17.0525    27.6762 H            1 FAD500   0.0000
    83 H5'1         2.7795    15.1586    30.4593 H            1 FAD500   0.0000
    84 H5'2         1.7385    15.9164    29.4550 H            1 FAD500   0.0000
@<TRIPOS>BOND
     1    1    2      ar
     2    1    3      ar
     3    1    4       1
     4    1   53       1
     5    4    5       1
     6    5    6       1
     7    6    7       1
     8    6    8       1
     9    7   12       1
    10    8    9       1
    11    8   10       1
    12   10   11       1
    13   10   12       1
    14   12   13       1
    15   13   14       1
    16   13   22       1
    17   14   15       2
    18   15   16       1
    19   16   17      ar
    20   16   22      ar
    21   17   18       1
    22   17   19      ar
    23   19   20      ar
    24   20   21      ar
    25   21   22      ar
    26   23   24       1
    27   23   40       2
    28   24   25       2
    29   24   26       1
    30   26   27       1
    31   27   28       2
    32   27   29       1
    33   29   30       2
    34   29   40       1
    35   30   31       1
    36   31   32      ar
    37   31   38      ar
    38   32   33      ar
    39   33   34       1
    40   33   35      ar
    41   35   36       1
    42   35   37      ar
    43   37   38      ar
    44   38   39       1
    45   39   40       1
    46   39   41       1
    47   41   42       1
    48   42   43       1
    49   42   44       1
    50   44   45       1
    51   44   46       1
    52   46   47       1
    53   46   48       1
    54   48   49       1
    55   49   50       1
    56   50   51      ar
    57   50   52      ar
    58   50   53       1
    59   48   84       1
    60    5   54       1
    61    5   55       1
    62    6   56       1
    63    8   57       1
    64    9   58       1
    65   10   59       1
    66   11   60       1
    67   12   61       1
    68   14   62       1
    69   18   63       1
    70   18   64       1
    71   20   65       1
    72   26   66       1
    73   32   67       1
    74   34   68       1
    75   34   69       1
    76   34   70       1
    77   36   71       1
    78   36   72       1
    79   36   73       1
    80   37   74       1
    81   41   75       1
    82   41   76       1
    83   42   77       1
    84   43   78       1
    85   44   79       1
    86   45   80       1
    87   46   81       1
    88   47   82       1
    89   48   83       1
@<TRIPOS>SUBSTRUCTURE
     1 FAD500      1 GROUP             4 B     FAD     0 **** FAD B 500
