@<TRIPOS>MOLECULE
1r2j_FAD_1_ligand
   84    89     1     0     0
SMALL
NO_CHARGES


@<TRIPOS>ATOM
     1 PA          50.0090   -12.1610    39.9700 P.3          1 FAD399   0.0000
     2 O1A         51.1450   -13.0470    40.1910 O.co2        1 FAD399   0.0000
     3 O2A         48.6260   -12.0810    40.5600 O.co2        1 FAD399  -1.0000
     4 O5B         49.9080   -11.4810    38.6040 O.3          1 FAD399   0.0000
     5 C5B         50.4690   -10.2470    38.8180 C.3          1 FAD399   0.0000
     6 C4B         50.5980    -9.2990    37.6760 C.3          1 FAD399   0.0000
     7 O4B         51.2860    -8.3300    38.5430 O.3          1 FAD399   0.0000
     8 C3B         51.6360    -9.8340    36.7410 C.3          1 FAD399   0.0000
     9 O3B         51.5360    -9.1540    35.5330 O.3          1 FAD399   0.0000
    10 C2B         52.9040    -9.5900    37.4100 C.3          1 FAD399   0.0000
    11 O2B         54.1290    -9.4880    36.6380 O.3          1 FAD399   0.0000
    12 C1B         52.6590    -8.2990    38.2450 C.3          1 FAD399   0.0000
    13 N9A         53.4010    -8.3210    39.4620 N.pl3        1 FAD399   0.0000
    14 C8A         53.2660    -9.1140    40.6330 C.2          1 FAD399   0.0000
    15 N7A         54.1360    -8.8750    41.5690 N.2          1 FAD399   0.0000
    16 C5A         54.9270    -7.8680    41.0510 C.ar         1 FAD399   0.0000
    17 C6A         56.0270    -7.1640    41.5500 C.ar         1 FAD399   0.0000
    18 N6A         56.5410    -7.3900    42.7670 N.pl3        1 FAD399   0.0000
    19 N1A         56.5980    -6.1950    40.7470 N.ar         1 FAD399   0.0000
    20 C2A         56.1050    -5.9380    39.5130 C.ar         1 FAD399   0.0000
    21 N3A         55.0110    -6.5820    38.9260 N.ar         1 FAD399   0.0000
    22 C4A         54.5040    -7.5520    39.8350 C.ar         1 FAD399   0.0000
    23 N1          51.8050   -22.6840    37.7830 N.2          1 FAD399   0.0000
    24 C2          52.3700   -23.8590    38.2840 C.2          1 FAD399   0.0000
    25 O2          52.7240   -23.9680    39.4730 O.2          1 FAD399   0.0000
    26 N3          52.5380   -24.9440    37.4350 N.pl3        1 FAD399   0.0000
    27 C4          52.1670   -24.9710    36.0660 C.2          1 FAD399   0.0000
    28 O4          52.3630   -26.0200    35.3810 O.2          1 FAD399   0.0000
    29 C4X         51.5920   -23.8100    35.6000 C.2          1 FAD399   0.0000
    30 N5          51.1800   -23.8280    34.1990 N.2          1 FAD399   0.0000
    31 C5X         50.5570   -22.6720    33.6830 C.ar         1 FAD399   0.0000
    32 C6          50.1010   -22.6060    32.3390 C.ar         1 FAD399   0.0000
    33 C7          49.4280   -21.4800    31.7760 C.ar         1 FAD399   0.0000
    34 C7M         48.9680   -21.5030    30.3200 C.3          1 FAD399   0.0000
    35 C8          49.1930   -20.3580    32.6190 C.ar         1 FAD399   0.0000
    36 C8M         48.4620   -19.1060    32.1690 C.3          1 FAD399   0.0000
    37 C9          49.6320   -20.3630    33.9180 C.ar         1 FAD399   0.0000
    38 C9A         50.3380   -21.4880    34.4830 C.ar         1 FAD399   0.0000
    39 N10         50.8240   -21.5440    35.8920 N.pl3        1 FAD399   0.0000
    40 C10         51.4200   -22.6780    36.4570 C.2          1 FAD399   0.0000
    41 C1'         50.5970   -20.2900    36.4700 C.3          1 FAD399   0.0000
    42 C2'         51.8720   -19.2900    36.2670 C.3          1 FAD399   0.0000
    43 O2'         52.7010   -19.7450    37.3750 O.3          1 FAD399   0.0000
    44 C3'         51.3610   -18.0060    36.6130 C.3          1 FAD399   0.0000
    45 O3'         51.2960   -17.1990    35.4110 O.3          1 FAD399   0.0000
    46 C4'         51.8730   -16.9320    37.6050 C.3          1 FAD399   0.0000
    47 O4'         52.2620   -17.2880    38.9040 O.3          1 FAD399   0.0000
    48 C5'         50.6200   -16.1930    37.6000 C.3          1 FAD399   0.0000
    49 O5'         50.2730   -15.6250    38.8260 O.3          1 FAD399   0.0000
    50 P           48.7950   -14.9550    38.8730 P.3          1 FAD399   0.0000
    51 O1P         49.2830   -15.4690    40.0620 O.co2        1 FAD399   0.0000
    52 O2P         47.6480   -14.3920    39.7550 O.co2        1 FAD399  -1.0000
    53 O3P         49.3060   -13.5020    39.3940 O.3          1 FAD399   0.0000
    54 H5B1        51.3905   -10.4028    39.1738 H            1 FAD399   0.0000
    55 H5B2        49.9152    -9.7912    39.5148 H            1 FAD399   0.0000
    56 H4B         49.7434    -8.9903    37.2585 H            1 FAD399   0.0000
    57 H3B         51.5021   -10.8148    36.5989 H            1 FAD399   0.0000
    58 H5          51.6867    -8.1774    35.6867 H            1 FAD399   0.0000
    59 H2B         53.0348   -10.3361    38.0628 H            1 FAD399   0.0000
    60 H7          53.9213    -9.1250    35.7296 H            1 FAD399   0.0000
    61 H1B         52.8848    -7.4852    37.7096 H            1 FAD399   0.0000
    62 H8A         52.5520    -9.8073    40.7304 H            1 FAD399   0.0000
    63 H6A1        57.3293    -6.8619    43.0828 H            1 FAD399   0.0000
    64 H6A2        56.1362    -8.0867    43.3592 H            1 FAD399   0.0000
    65 H2A         56.5611    -5.2283    38.9761 H            1 FAD399   0.0000
    66 H13         52.9522   -25.7699    37.8175 H            1 FAD399   0.0000
    67 H14         50.2616   -23.3983    31.7503 H            1 FAD399   0.0000
    68 H7M1        48.5189   -20.6374    30.0986 H            1 FAD399   0.0000
    69 H7M2        49.7596   -21.6303    29.7223 H            1 FAD399   0.0000
    70 H7M3        48.3243   -22.2564    30.1856 H            1 FAD399   0.0000
    71 H8M1        48.4167   -18.4557    32.9273 H            1 FAD399   0.0000
    72 H8M2        48.9525   -18.6909    31.4028 H            1 FAD399   0.0000
    73 H8M3        47.5353   -19.3466    31.8805 H            1 FAD399   0.0000
    74 H21         49.4577   -19.5626    34.4915 H            1 FAD399   0.0000
    75 H1'1        50.4320   -20.4097    37.4490 H            1 FAD399   0.0000
    76 H1'2        49.7914   -19.8782    36.0441 H            1 FAD399   0.0000
    77 H2'         52.3071   -19.3409    35.3680 H            1 FAD399   0.0000
    78 H25         52.8673   -18.9835    38.0015 H            1 FAD399   0.0000
    79 H3'         50.4082   -18.1658    36.8712 H            1 FAD399   0.0000
    80 H27         50.3500   -16.9185    35.2486 H            1 FAD399   0.0000
    81 H4'         52.5909   -16.3859    37.1733 H            1 FAD399   0.0000
    82 H29         51.4727   -17.2318    39.5155 H            1 FAD399   0.0000
    83 H5'1        49.8896   -16.8202    37.3295 H            1 FAD399   0.0000
    84 H5'2        50.6947   -15.4579    36.9262 H            1 FAD399   0.0000
@<TRIPOS>BOND
     1    1    2      ar
     2    1    3      ar
     3    1    4       1
     4    1   53       1
     5    4    5       1
     6    5    6       1
     7    6    7       1
     8    6    8       1
     9    7   12       1
    10    8    9       1
    11    8   10       1
    12   10   11       1
    13   10   12       1
    14   12   13       1
    15   13   14       1
    16   13   22       1
    17   14   15       2
    18   15   16       1
    19   16   17      ar
    20   16   22      ar
    21   17   18       1
    22   17   19      ar
    23   19   20      ar
    24   20   21      ar
    25   21   22      ar
    26   23   24       1
    27   23   40       2
    28   24   25       2
    29   24   26       1
    30   26   27       1
    31   27   28       2
    32   27   29       1
    33   29   30       2
    34   29   40       1
    35   30   31       1
    36   31   32      ar
    37   31   38      ar
    38   32   33      ar
    39   33   34       1
    40   33   35      ar
    41   35   36       1
    42   35   37      ar
    43   37   38      ar
    44   38   39       1
    45   39   40       1
    46   39   41       1
    47   41   42       1
    48   42   43       1
    49   42   44       1
    50   44   45       1
    51   44   46       1
    52   46   47       1
    53   46   48       1
    54   48   49       1
    55   49   50       1
    56   50   53       1
    57   50   51      ar
    58   50   52      ar
    59   48   84       1
    60    5   54       1
    61    5   55       1
    62    6   56       1
    63    8   57       1
    64    9   58       1
    65   10   59       1
    66   11   60       1
    67   12   61       1
    68   14   62       1
    69   18   63       1
    70   18   64       1
    71   20   65       1
    72   26   66       1
    73   32   67       1
    74   34   68       1
    75   34   69       1
    76   34   70       1
    77   36   71       1
    78   36   72       1
    79   36   73       1
    80   37   74       1
    81   41   75       1
    82   41   76       1
    83   42   77       1
    84   43   78       1
    85   44   79       1
    86   45   80       1
    87   46   81       1
    88   47   82       1
    89   48   83       1
@<TRIPOS>SUBSTRUCTURE
     1 FAD399      1 GROUP             4 A     FAD     0 **** FAD A 399
