@<TRIPOS>MOLECULE
2v6o_FAD_1_ligand
   84    89     1     0     0
SMALL
NO_CHARGES


@<TRIPOS>ATOM
     1 PA          21.9950     5.7720    15.2430 P.3          1 FAD1594   0.0000
     2 O1A         21.7170     4.8510    16.4070 O.co2        1 FAD1594   0.0000
     3 O2A         21.1920     5.3630    14.0310 O.co2        1 FAD1594  -1.0000
     4 O5B         23.5720     5.7560    14.9130 O.3          1 FAD1594   0.0000
     5 C5B         24.5240     5.9700    15.9300 C.3          1 FAD1594   0.0000
     6 C4B         25.6410     4.9390    15.8460 C.3          1 FAD1594   0.0000
     7 O4B         26.8040     5.4400    16.4770 O.3          1 FAD1594   0.0000
     8 C3B         25.2650     3.6480    16.5570 C.3          1 FAD1594   0.0000
     9 O3B         25.1230     2.6080    15.6130 O.3          1 FAD1594   0.0000
    10 C2B         26.4040     3.3680    17.5240 C.3          1 FAD1594   0.0000
    11 O2B         26.9220     2.0680    17.3460 O.3          1 FAD1594   0.0000
    12 C1B         27.4640     4.4080    17.1860 C.3          1 FAD1594   0.0000
    13 N9A         28.1640     4.9320    18.3820 N.pl3        1 FAD1594   0.0000
    14 C8A         27.6390     5.1560    19.6310 C.2          1 FAD1594   0.0000
    15 N7A         28.6170     5.6350    20.4340 N.2          1 FAD1594   0.0000
    16 C5A         29.7610     5.7220    19.7210 C.ar         1 FAD1594   0.0000
    17 C6A         31.0460     6.1440    20.0540 C.ar         1 FAD1594   0.0000
    18 N6A         31.3930     6.2390    21.3350 N.pl3        1 FAD1594   0.0000
    19 N1A         32.0350     6.1200    19.0870 N.ar         1 FAD1594   0.0000
    20 C2A         31.7550     5.6800    17.8070 C.ar         1 FAD1594   0.0000
    21 N3A         30.4750     5.2640    17.4900 N.ar         1 FAD1594   0.0000
    22 C4A         29.4920     5.2830    18.4290 C.ar         1 FAD1594   0.0000
    23 N1          12.6230     5.6840    12.6830 N.2          1 FAD1594   0.0000
    24 C2          11.8050     5.9530    11.6010 C.2          1 FAD1594   0.0000
    25 O2          11.8660     7.0460    11.0420 O.2          1 FAD1594   0.0000
    26 N3          10.9170     4.9980    11.1460 N.pl3        1 FAD1594   0.0000
    27 C4          10.8420     3.7660    11.7670 C.2          1 FAD1594   0.0000
    28 O4          10.2060     2.8590    11.2300 O.2          1 FAD1594   0.0000
    29 C4X         11.6650     3.4920    12.8600 C.2          1 FAD1594   0.0000
    30 N5          11.5940     2.2620    13.4830 N.2          1 FAD1594   0.0000
    31 C5X         12.4030     1.9780    14.5630 C.ar         1 FAD1594   0.0000
    32 C6          12.3070     0.7300    15.1740 C.ar         1 FAD1594   0.0000
    33 C7          13.1140     0.4140    16.2640 C.ar         1 FAD1594   0.0000
    34 C7M         13.2360    -1.0320    16.6540 C.3          1 FAD1594   0.0000
    35 C8          14.0200     1.3660    16.7450 C.ar         1 FAD1594   0.0000
    36 C8M         14.7370     1.1570    18.0470 C.3          1 FAD1594   0.0000
    37 C9          14.1110     2.6150    16.1310 C.ar         1 FAD1594   0.0000
    38 C9A         13.3060     2.9340    15.0350 C.ar         1 FAD1594   0.0000
    39 N10         13.3880     4.1770    14.4110 N.pl3        1 FAD1594   0.0000
    40 C10         12.5640     4.4560    13.3240 C.2          1 FAD1594   0.0000
    41 C1'         14.2540     5.2640    14.9980 C.3          1 FAD1594   0.0000
    42 C2'         15.5760     5.3910    14.2370 C.3          1 FAD1594   0.0000
    43 O2'         16.2240     4.1370    14.2210 O.3          1 FAD1594   0.0000
    44 C3'         16.4950     6.4500    14.8540 C.3          1 FAD1594   0.0000
    45 O3'         15.7930     7.6700    14.9800 O.3          1 FAD1594   0.0000
    46 C4'         17.7690     6.6900    14.0370 C.3          1 FAD1594   0.0000
    47 O4'         18.4450     5.4740    13.7960 O.3          1 FAD1594   0.0000
    48 C5'         18.7200     7.6350    14.7670 C.3          1 FAD1594   0.0000
    49 O5'         19.8680     7.8720    13.9820 O.3          1 FAD1594   0.0000
    50 P           21.2270     8.4270    14.6460 P.3          1 FAD1594   0.0000
    51 O1P         22.2840     8.5880    13.5780 O.co2        1 FAD1594   0.0000
    52 O2P         20.9850     9.7330    15.3650 O.co2        1 FAD1594  -1.0000
    53 O3P         21.6830     7.2880    15.6930 O.3          1 FAD1594   0.0000
    54 H5B1        24.0753     5.8962    16.8206 H            1 FAD1594   0.0000
    55 H5B2        24.9136     6.8853    15.8278 H            1 FAD1594   0.0000
    56 H4B         25.8416     4.7436    14.8860 H            1 FAD1594   0.0000
    57 H3B         24.4104     3.7714    17.0614 H            1 FAD1594   0.0000
    58 H5          25.7737     1.8777    15.8212 H            1 FAD1594   0.0000
    59 H2B         26.0924     3.4881    18.4666 H            1 FAD1594   0.0000
    60 H7          26.8215     1.5499    18.1954 H            1 FAD1594   0.0000
    61 H1B         28.1399     3.9880    16.5804 H            1 FAD1594   0.0000
    62 H8A         26.6905     4.9922    19.9022 H            1 FAD1594   0.0000
    63 H6A1        32.3135     6.5412    21.5826 H            1 FAD1594   0.0000
    64 H6A2        30.7332     6.0082    22.0502 H            1 FAD1594   0.0000
    65 H2A         32.4750     5.6626    17.1132 H            1 FAD1594   0.0000
    66 H13         10.3263     5.1989    10.3645 H            1 FAD1594   0.0000
    67 H14         11.6542     0.0564    14.8276 H            1 FAD1594   0.0000
    68 H7M1        13.8409    -1.1137    17.4461 H            1 FAD1594   0.0000
    69 H7M2        12.3324    -1.3920    16.8861 H            1 FAD1594   0.0000
    70 H7M3        13.6159    -1.5526    15.8893 H            1 FAD1594   0.0000
    71 H8M1        15.3382     1.9360    18.2252 H            1 FAD1594   0.0000
    72 H8M2        14.0686     1.0758    18.7863 H            1 FAD1594   0.0000
    73 H8M3        15.2819     0.3200    17.9969 H            1 FAD1594   0.0000
    74 H21         14.7606     3.2905    16.4798 H            1 FAD1594   0.0000
    75 H1'1        14.4480     5.0455    15.9544 H            1 FAD1594   0.0000
    76 H1'2        13.7639     6.1342    14.9476 H            1 FAD1594   0.0000
    77 H2'         15.3749     5.6561    13.2940 H            1 FAD1594   0.0000
    78 H25         17.2142     4.2738    14.1926 H            1 FAD1594   0.0000
    79 H3'         16.7601     6.1432    15.7681 H            1 FAD1594   0.0000
    80 H27         16.1482     8.1795    15.7637 H            1 FAD1594   0.0000
    81 H4'         17.5177     7.0990    13.1598 H            1 FAD1594   0.0000
    82 H29         19.3624     5.5186    14.1914 H            1 FAD1594   0.0000
    83 H5'1        18.9933     7.2225    15.6360 H            1 FAD1594   0.0000
    84 H5'2        18.2543     8.5025    14.9417 H            1 FAD1594   0.0000
@<TRIPOS>BOND
     1    1    2      ar
     2    1    3      ar
     3    1    4       1
     4    1   53       1
     5    4    5       1
     6    5    6       1
     7    6    7       1
     8    6    8       1
     9    7   12       1
    10    8    9       1
    11    8   10       1
    12   10   11       1
    13   10   12       1
    14   12   13       1
    15   13   14       1
    16   13   22       1
    17   14   15       2
    18   15   16       1
    19   16   17      ar
    20   16   22      ar
    21   17   18       1
    22   17   19      ar
    23   19   20      ar
    24   20   21      ar
    25   21   22      ar
    26   23   24       1
    27   23   40       2
    28   24   25       2
    29   24   26       1
    30   26   27       1
    31   27   28       2
    32   27   29       1
    33   29   30       2
    34   29   40       1
    35   30   31       1
    36   31   32      ar
    37   31   38      ar
    38   32   33      ar
    39   33   34       1
    40   33   35      ar
    41   35   36       1
    42   35   37      ar
    43   37   38      ar
    44   38   39       1
    45   39   40       1
    46   39   41       1
    47   41   42       1
    48   42   43       1
    49   42   44       1
    50   44   45       1
    51   44   46       1
    52   46   47       1
    53   46   48       1
    54   48   49       1
    55   49   50       1
    56   50   51      ar
    57   50   52      ar
    58   50   53       1
    59   48   84       1
    60    5   54       1
    61    5   55       1
    62    6   56       1
    63    8   57       1
    64    9   58       1
    65   10   59       1
    66   11   60       1
    67   12   61       1
    68   14   62       1
    69   18   63       1
    70   18   64       1
    71   20   65       1
    72   26   66       1
    73   32   67       1
    74   34   68       1
    75   34   69       1
    76   34   70       1
    77   36   71       1
    78   36   72       1
    79   36   73       1
    80   37   74       1
    81   41   75       1
    82   41   76       1
    83   42   77       1
    84   43   78       1
    85   44   79       1
    86   45   80       1
    87   46   81       1
    88   47   82       1
    89   48   83       1
@<TRIPOS>SUBSTRUCTURE
     1 FAD1594     1 GROUP             4 A     FAD     0 **** FAD A1594
