@<TRIPOS>MOLECULE
2k5t_COA_1_ligand
   81    83     1     0     0
SMALL
NO_CHARGES


@<TRIPOS>ATOM
     1 N1A         84.3850    -0.7730    -3.4760 N.ar         1 COA999   0.0000
     2 C2A         85.1320    -1.5410    -2.5870 C.ar         1 COA999   0.0000
     3 N3A         84.7230    -1.6160    -1.2560 N.ar         1 COA999   1.0000
     4 C4A         83.6180    -0.9540    -0.8630 C.ar         1 COA999   0.0000
     5 C5A         82.9140    -0.2200    -1.7390 C.ar         1 COA999   0.0000
     6 C6A         83.2950    -0.1380    -3.0210 C.ar         1 COA999   0.0000
     7 N6A         82.5370     0.6050    -3.8270 N.pl3        1 COA999   0.0000
     8 N7A         81.8870     0.3180    -1.0830 N.2          1 COA999   0.0000
     9 C8A         81.9530    -0.0760     0.1860 C.2          1 COA999   0.0000
    10 N9A         83.0170    -0.8580     0.3180 N.pl3        1 COA999   0.0000
    11 C1B         83.4530    -1.5200     1.5710 C.3          1 COA999   0.0000
    12 C2B         82.4590    -2.5660     2.0270 C.3          1 COA999   0.0000
    13 O2B         82.4790    -2.6850     3.4580 O.3          1 COA999   0.0000
    14 C3B         82.9560    -3.8320     1.4020 C.3          1 COA999   0.0000
    15 O3B         82.6500    -4.9490     2.2480 O.3          1 COA999   0.0000
    16 P3B         81.9400    -6.2560     1.6430 P.3          1 COA999   0.0000
    17 O7A         81.6390    -7.2640     2.6800 O.co2        1 COA999   0.0000
    18 O8A         82.9500    -6.8290     0.5250 O.co2        1 COA999  -1.0000
    19 O9A         80.6140    -5.7700     0.8770 O.co2        1 COA999  -1.0000
    20 C4B         84.4580    -3.6420     1.3220 C.3          1 COA999   0.0000
    21 O4B         84.7110    -2.2080     1.3550 O.3          1 COA999   0.0000
    22 C5B         85.0130    -4.2540     0.0360 C.3          1 COA999   0.0000
    23 O5B         86.2860    -3.7060     0.3880 O.3          1 COA999   0.0000
    24 P1A         87.6340    -4.5210     0.0720 P.3          1 COA999   0.0000
    25 O1A         88.4080    -4.7090     1.3160 O.co2        1 COA999   0.0000
    26 O2A         87.3160    -5.7440    -0.7150 O.co2        1 COA999  -1.0000
    27 O3A         88.4420    -3.5200    -0.8900 O.3          1 COA999   0.0000
    28 P2A         89.2470    -4.0840    -2.1640 P.3          1 COA999   0.0000
    29 O4A         88.3780    -5.0060    -2.9420 O.co2        1 COA999   0.0000
    30 O5A         90.5550    -4.6140    -1.7260 O.co2        1 COA999  -1.0000
    31 O6A         89.4950    -2.7650    -3.0610 O.3          1 COA999   0.0000
    32 CBP         89.4470    -0.7380    -3.6270 C.3          1 COA999   0.0000
    33 CCP         88.4200    -1.8580    -3.3630 C.3          1 COA999   0.0000
    34 CDP         88.6920     0.5630    -3.9290 C.3          1 COA999   0.0000
    35 CEP         90.3360    -0.5260    -2.3900 C.3          1 COA999   0.0000
    36 CAP         90.3200    -1.1000    -4.8400 C.3          1 COA999   0.0000
    37 OAP         89.5200    -1.0980    -6.0280 O.3          1 COA999   0.0000
    38 C9P         91.4580    -0.0800    -4.9760 C.2          1 COA999   0.0000
    39 O9P         92.3880    -0.0680    -4.1690 O.2          1 COA999   0.0000
    40 N8P         91.3530     0.7690    -6.0130 N.am         1 COA999   0.0000
    41 C7P         91.9330     2.1270    -5.9840 C.3          1 COA999   0.0000
    42 C6P         93.4660     2.0420    -5.8250 C.3          1 COA999   0.0000
    43 C5P         93.5760     3.5390    -6.1410 C.2          1 COA999   0.0000
    44 O5P         93.6200     3.9380    -7.3040 O.2          1 COA999   0.0000
    45 N4P         93.6400     4.3440    -5.0690 N.am         1 COA999   0.0000
    46 C3P         94.2860     5.6670    -5.1260 C.3          1 COA999   0.0000
    47 C2P         95.4800     5.7140    -4.1600 C.3          1 COA999   0.0000
    48 S1P         95.9950     7.3510    -4.8010 S.3          1 COA999   0.0000
    49 H2A         85.9472    -2.0301    -2.8973 H            1 COA999   0.0000
    50 H6A1        81.7286     1.0695    -3.4654 H            1 COA999   0.0000
    51 H6A2        82.7767     0.6980    -4.7934 H            1 COA999   0.0000
    52 H8A         81.3131     0.1734     0.9129 H            1 COA999   0.0000
    53 H1B         83.5674    -0.8332     2.2888 H            1 COA999   0.0000
    54 H2B         81.5390    -2.3470     1.7019 H            1 COA999   0.0000
    55 H7          83.3946    -2.9533     3.7574 H            1 COA999   0.0000
    56 H3B         82.5637    -3.9573     0.4907 H            1 COA999   0.0000
    57 H4B         84.8916    -4.0755     2.1120 H            1 COA999   0.0000
    58 H5B1        84.6188    -3.8831    -0.8048 H            1 COA999   0.0000
    59 H5B2        84.9846    -5.2531     0.0050 H            1 COA999   0.0000
    60 HCP1        87.8078    -1.6784    -2.5929 H            1 COA999   0.0000
    61 HCP2        87.8805    -2.1156    -4.1647 H            1 COA999   0.0000
    62 HDP1        89.3487     1.2970    -4.1020 H            1 COA999   0.0000
    63 HDP2        88.1157     0.4343    -4.7360 H            1 COA999   0.0000
    64 HDP3        88.1195     0.8056    -3.1458 H            1 COA999   0.0000
    65 HEP1        90.9963     0.2019    -2.5748 H            1 COA999   0.0000
    66 HEP2        89.7658    -0.2686    -1.6099 H            1 COA999   0.0000
    67 HEP3        90.8239    -1.3735    -2.1810 H            1 COA999   0.0000
    68 HAP         90.7087    -2.0116    -4.7060 H            1 COA999   0.0000
    69 H21         88.7851    -1.7699    -5.9361 H            1 COA999   0.0000
    70 H8P         90.8649     0.4705    -6.8331 H            1 COA999   0.0000
    71 H7P1        91.5477     2.6354    -5.2139 H            1 COA999   0.0000
    72 H7P2        91.7142     2.5990    -6.8380 H            1 COA999   0.0000
    73 H6P1        93.9143     1.4488    -6.4937 H            1 COA999   0.0000
    74 H6P2        93.7687     1.7950    -4.9045 H            1 COA999   0.0000
    75 H4P         93.2376     4.0370    -4.2066 H            1 COA999   0.0000
    76 H3P1        93.6235     6.3699    -4.8673 H            1 COA999   0.0000
    77 H3P2        94.6072     5.8383    -6.0574 H            1 COA999   0.0000
    78 H2P1        96.1527     4.9906    -4.3154 H            1 COA999   0.0000
    79 H2P2        95.2175     5.7235    -3.1951 H            1 COA999   0.0000
    80 H1P         96.8147     7.6560    -4.3162 H            1 COA999   0.0000
    81 H3A         85.2464    -2.1574    -0.5981 H            1 COA999   0.0000
@<TRIPOS>BOND
     1    1    2      ar
     2    1    6      ar
     3    2    3      ar
     4    3    4      ar
     5    4    5      ar
     6    4   10       1
     7    5    6      ar
     8    5    8       1
     9    6    7       1
    10    8    9       2
    11    9   10       1
    12   10   11       1
    13   11   12       1
    14   11   21       1
    15   12   13       1
    16   12   14       1
    17   14   15       1
    18   14   20       1
    19   15   16       1
    20   16   17      ar
    21   16   18      ar
    22   16   19      ar
    23   20   21       1
    24   20   22       1
    25   22   23       1
    26   23   24       1
    27   24   25      ar
    28   24   26      ar
    29   24   27       1
    30   27   28       1
    31   28   29      ar
    32   28   30      ar
    33   28   31       1
    34   31   33       1
    35   32   33       1
    36   32   34       1
    37   32   35       1
    38   32   36       1
    39   36   37       1
    40   36   38       1
    41   38   39       2
    42   38   40      am
    43   40   41       1
    44   41   42       1
    45   42   43       1
    46   43   44       2
    47   43   45      am
    48   45   46       1
    49   46   47       1
    50   47   48       1
    51    2   49       1
    52    7   50       1
    53    7   51       1
    54    9   52       1
    55   11   53       1
    56   12   54       1
    57   13   55       1
    58   14   56       1
    59   48   80       1
    60   47   79       1
    61   20   57       1
    62   22   58       1
    63   22   59       1
    64   47   78       1
    65   46   77       1
    66   33   60       1
    67   33   61       1
    68   34   62       1
    69   34   63       1
    70   34   64       1
    71   35   65       1
    72   35   66       1
    73   35   67       1
    74   36   68       1
    75   37   69       1
    76   40   70       1
    77   41   71       1
    78   41   72       1
    79   42   73       1
    80   42   74       1
    81   45   75       1
    82   46   76       1
    83    3   81       1
@<TRIPOS>SUBSTRUCTURE
     1 COA999      1 GROUP             4 A     COA     0 **** COA A 999
