@<TRIPOS>MOLECULE
3t80_CTN_3_ligand
   30    31     1     0     0
SMALL
NO_CHARGES


@<TRIPOS>ATOM
     1 O5'        -12.3510    18.0230     3.8900 O.3          1 CTN401   0.0000
     2 C5'        -11.3330    17.5400     4.7840 C.3          1 CTN401   0.0000
     3 C4'        -10.2020    18.5510     4.8690 C.3          1 CTN401   0.0000
     4 O4'         -9.5610    18.7290     3.6070 O.3          1 CTN401   0.0000
     5 C1'         -9.2520    20.1020     3.4260 C.3          1 CTN401   0.0000
     6 N1          -9.6630    20.4660     2.0930 N.pl3        1 CTN401   0.0000
     7 C6         -10.8310    20.0800     1.6160 C.2          1 CTN401   0.0000
     8 C5         -11.1470    20.4290     0.3300 C.2          1 CTN401   0.0000
     9 C4         -10.2470    21.1520    -0.4270 C.2          1 CTN401   0.0000
    10 N3          -9.0730    21.5180     0.0670 N.2          1 CTN401   0.0000
    11 C2          -8.7690    21.1870     1.3190 C.2          1 CTN401   0.0000
    12 O2          -7.6790    21.5220     1.8160 O.2          1 CTN401   0.0000
    13 N4         -10.5340    21.5060    -1.6900 N.pl3        1 CTN401   0.0000
    14 C2'        -10.0030    20.8830     4.4620 C.3          1 CTN401   0.0000
    15 O2'         -9.0530    21.5250     5.3130 O.3          1 CTN401   0.0000
    16 C3'        -10.7540    19.8900     5.2890 C.3          1 CTN401   0.0000
    17 O3'        -10.4870    20.1220     6.6690 O.3          1 CTN401   0.0000
    18 H5'        -13.0929    17.3545     3.8373 H            1 CTN401   0.0000
    19 H5'1       -10.9763    16.6705     4.4424 H            1 CTN401   0.0000
    20 H5'2       -11.7265    17.4046     5.6933 H            1 CTN401   0.0000
    21 H4'         -9.5302    18.2424     5.5424 H            1 CTN401   0.0000
    22 H1'         -8.2686    20.2486     3.5330 H            1 CTN401   0.0000
    23 H6         -11.4663    19.5487     2.1765 H            1 CTN401   0.0000
    24 H7         -12.0279    20.1607    -0.0599 H            1 CTN401   0.0000
    25 H8          -9.8714    22.0298    -2.2253 H            1 CTN401   0.0000
    26 H9         -11.4104    21.2459    -2.0953 H            1 CTN401   0.0000
    27 H2'        -10.6208    21.5468     4.0403 H            1 CTN401   0.0000
    28 H11         -9.5351    22.0524     6.0126 H            1 CTN401   0.0000
    29 H3'        -11.7352    19.9434     5.1035 H            1 CTN401   0.0000
    30 H13         -9.4991    20.1125     6.8236 H            1 CTN401   0.0000
@<TRIPOS>BOND
     1    1    2       1
     2    2    3       1
     3    3    4       1
     4    3   16       1
     5    4    5       1
     6    5    6       1
     7    5   14       1
     8    6    7       1
     9    6   11       1
    10    7    8       2
    11    8    9       1
    12    9   10       2
    13    9   13       1
    14   10   11       1
    15   11   12       2
    16   14   15       1
    17   14   16       1
    18   16   17       1
    19    1   18       1
    20    2   19       1
    21    2   20       1
    22    3   21       1
    23    5   22       1
    24    7   23       1
    25    8   24       1
    26   13   25       1
    27   13   26       1
    28   14   27       1
    29   15   28       1
    30   16   29       1
    31   17   30       1
@<TRIPOS>SUBSTRUCTURE
     1 CTN401      1 GROUP             4 C     CTN     0 **** CTN C 401
