@<TRIPOS>MOLECULE
1ysl_COA_1_ligand
   80    82     1     0     0
SMALL
NO_CHARGES


@<TRIPOS>ATOM
     1 N1A         23.4550    50.0260    -7.8350 N.ar         1 COA601   0.0000
     2 C2A         24.6320    49.7760    -7.2060 C.ar         1 COA601   0.0000
     3 N3A         24.9810    50.1650    -5.9540 N.ar         1 COA601   0.0000
     4 C4A         23.9840    50.8690    -5.3280 C.ar         1 COA601   0.0000
     5 C5A         22.7480    51.2010    -5.8600 C.ar         1 COA601   0.0000
     6 C6A         22.4850    50.7390    -7.1670 C.ar         1 COA601   0.0000
     7 N6A         21.3340    50.9800    -7.7690 N.pl3        1 COA601   0.0000
     8 N7A         22.0100    51.9190    -4.9390 N.2          1 COA601   0.0000
     9 C8A         22.7720    52.0320    -3.8850 C.2          1 COA601   0.0000
    10 N9A         23.9870    51.4100    -4.0540 N.pl3        1 COA601   0.0000
    11 C1B         25.0110    51.1540    -3.0520 C.3          1 COA601   0.0000
    12 C2B         25.4200    52.3390    -2.1660 C.3          1 COA601   0.0000
    13 O2B         26.4730    53.1060    -2.7380 O.3          1 COA601   0.0000
    14 C3B         25.7770    51.6090    -0.8720 C.3          1 COA601   0.0000
    15 O3B         27.0920    51.0750    -1.0180 O.3          1 COA601   0.0000
    16 P3B         28.2130    51.1830     0.1170 P.3          1 COA601   0.0000
    17 O7A         27.5980    51.2570     1.4720 O.co2        1 COA601   0.0000
    18 O8A         29.0700    49.9690     0.0140 O.co2        1 COA601  -1.0000
    19 O9A         29.0870    52.4740    -0.1550 O.co2        1 COA601  -1.0000
    20 C4B         24.7820    50.4750    -0.8150 C.3          1 COA601   0.0000
    21 O4B         24.5280    50.1320    -2.1950 O.3          1 COA601   0.0000
    22 C5B         23.4550    50.8330    -0.1340 C.3          1 COA601   0.0000
    23 O5B         23.3770    52.1700     0.3650 O.3          1 COA601   0.0000
    24 P1A         22.6640    52.4260     1.7680 P.3          1 COA601   0.0000
    25 O1A         23.5840    53.2540     2.5940 O.co2        1 COA601   0.0000
    26 O2A         21.3480    53.0900     1.4990 O.co2        1 COA601  -1.0000
    27 O3A         22.3690    50.9590     2.4200 O.3          1 COA601   0.0000
    28 P2A         20.9270    50.7590     3.1610 P.3          1 COA601   0.0000
    29 O4A         20.3840    52.0090     3.7620 O.co2        1 COA601   0.0000
    30 O5A         20.0080    50.1410     2.1570 O.co2        1 COA601  -1.0000
    31 O6A         21.2130    49.7210     4.3290 O.3          1 COA601   0.0000
    32 CBP         22.2290    47.8280     5.4410 C.3          1 COA601   0.0000
    33 CCP         22.1340    48.6280     4.1570 C.3          1 COA601   0.0000
    34 CDP         22.9600    48.7320     6.4410 C.3          1 COA601   0.0000
    35 CEP         23.0120    46.5510     5.1710 C.3          1 COA601   0.0000
    36 CAP         20.7680    47.5200     5.9060 C.3          1 COA601   0.0000
    37 OAP         20.0830    46.6260     5.0160 O.3          1 COA601   0.0000
    38 C9P         20.6400    47.0040     7.3540 C.2          1 COA601   0.0000
    39 O9P         20.1250    47.7390     8.1950 O.2          1 COA601   0.0000
    40 N8P         21.0930    45.7850     7.6430 N.am         1 COA601   0.0000
    41 C7P         20.9490    45.1630     8.9620 C.3          1 COA601   0.0000
    42 C6P         22.2280    45.2430     9.7860 C.3          1 COA601   0.0000
    43 C5P         23.3770    44.4450     9.1890 C.2          1 COA601   0.0000
    44 O5P         23.1510    43.4620     8.4700 O.2          1 COA601   0.0000
    45 N4P         24.6090    44.8700     9.4910 N.am         1 COA601   0.0000
    46 C3P         25.8450    44.2490     9.0250 C.3          1 COA601   0.0000
    47 C2P         26.8830    44.1010    10.1290 C.3          1 COA601   0.0000
    48 S1P         26.8530    42.4780    10.9140 S.3          1 COA601   0.0000
    49 H2A         25.3117    49.2511    -7.7183 H            1 COA601   0.0000
    50 H6A1        20.6206    51.4966    -7.2955 H            1 COA601   0.0000
    51 H6A2        21.1761    50.6458    -8.6982 H            1 COA601   0.0000
    52 H8A         22.5034    52.5148    -3.0515 H            1 COA601   0.0000
    53 H1B         25.8278    50.8134    -3.5176 H            1 COA601   0.0000
    54 H2B         24.6266    52.9271    -2.0089 H            1 COA601   0.0000
    55 H7          26.7036    53.8633    -2.1270 H            1 COA601   0.0000
    56 H3B         25.7049    52.2080    -0.0745 H            1 COA601   0.0000
    57 H4B         25.1951    49.6930    -0.3484 H            1 COA601   0.0000
    58 H5B1        23.3207    50.2064     0.6337 H            1 COA601   0.0000
    59 H5B2        22.7199    50.7065    -0.8000 H            1 COA601   0.0000
    60 HCP1        23.0369    48.9887     3.9232 H            1 COA601   0.0000
    61 HCP2        21.8109    48.0348     3.4196 H            1 COA601   0.0000
    62 HDP1        23.0537    48.2550     7.3149 H            1 COA601   0.0000
    63 HDP2        23.8670    48.9574     6.0854 H            1 COA601   0.0000
    64 HDP3        22.4360    49.5731     6.5749 H            1 COA601   0.0000
    65 HEP1        23.0794    46.0169     6.0137 H            1 COA601   0.0000
    66 HEP2        22.5412    46.0128     4.4720 H            1 COA601   0.0000
    67 HEP3        23.9299    46.7844     4.8499 H            1 COA601   0.0000
    68 HAP         20.2721    48.3877     5.8710 H            1 COA601   0.0000
    69 H21         19.1030    46.8240     5.0338 H            1 COA601   0.0000
    70 H8P         21.5552    45.2677     6.9227 H            1 COA601   0.0000
    71 H7P1        20.7066    44.2007     8.8383 H            1 COA601   0.0000
    72 H7P2        20.2174    45.6299     9.4588 H            1 COA601   0.0000
    73 H6P1        22.0383    44.8900    10.7022 H            1 COA601   0.0000
    74 H6P2        22.5059    46.2015     9.8490 H            1 COA601   0.0000
    75 H4P         24.6892    45.6738    10.0805 H            1 COA601   0.0000
    76 H3P1        26.2317    44.8143     8.2964 H            1 COA601   0.0000
    77 H3P2        25.6304    43.3413     8.6643 H            1 COA601   0.0000
    78 H2P1        26.7069    44.7954    10.8267 H            1 COA601   0.0000
    79 H2P2        27.7903    44.2472     9.7347 H            1 COA601   0.0000
    80 H1P         26.5494    41.7930    10.2518 H            1 COA601   0.0000
@<TRIPOS>BOND
     1    1    2      ar
     2    1    6      ar
     3    2    3      ar
     4    3    4      ar
     5    4    5      ar
     6    4   10       1
     7    5    6      ar
     8    5    8       1
     9    6    7       1
    10    8    9       2
    11    9   10       1
    12   10   11       1
    13   11   12       1
    14   11   21       1
    15   12   13       1
    16   12   14       1
    17   14   15       1
    18   14   20       1
    19   15   16       1
    20   16   17      ar
    21   16   18      ar
    22   16   19      ar
    23   20   21       1
    24   20   22       1
    25   22   23       1
    26   23   24       1
    27   24   25      ar
    28   24   26      ar
    29   24   27       1
    30   27   28       1
    31   28   29      ar
    32   28   30      ar
    33   28   31       1
    34   31   33       1
    35   32   33       1
    36   32   34       1
    37   32   35       1
    38   32   36       1
    39   36   37       1
    40   36   38       1
    41   38   39       2
    42   38   40      am
    43   40   41       1
    44   41   42       1
    45   42   43       1
    46   43   44       2
    47   43   45      am
    48   45   46       1
    49   46   47       1
    50   47   48       1
    51    2   49       1
    52    7   50       1
    53    7   51       1
    54    9   52       1
    55   11   53       1
    56   12   54       1
    57   13   55       1
    58   14   56       1
    59   48   80       1
    60   47   79       1
    61   20   57       1
    62   22   58       1
    63   22   59       1
    64   47   78       1
    65   46   77       1
    66   33   60       1
    67   33   61       1
    68   34   62       1
    69   34   63       1
    70   34   64       1
    71   35   65       1
    72   35   66       1
    73   35   67       1
    74   36   68       1
    75   37   69       1
    76   40   70       1
    77   41   71       1
    78   41   72       1
    79   42   73       1
    80   42   74       1
    81   45   75       1
    82   46   76       1
@<TRIPOS>SUBSTRUCTURE
     1 COA601      1 GROUP             4 B     COA     0 **** COA B 601
