@<TRIPOS>MOLECULE
1wam_FAD_1_ligand
   84    89     1     0     0
SMALL
NO_CHARGES


@<TRIPOS>ATOM
     1 PA         -34.3880     1.9920    -5.3420 P.3          1 FAD1384   0.0000
     2 O1A        -34.2780     2.5690    -6.8610 O.co2        1 FAD1384   0.0000
     3 O2A        -33.0970     2.1370    -4.6210 O.co2        1 FAD1384  -1.0000
     4 O5B        -35.4340     2.7980    -4.5320 O.3          1 FAD1384   0.0000
     5 C5B        -35.6190     2.7240    -3.0990 C.3          1 FAD1384   0.0000
     6 C4B        -36.2290     4.0610    -2.5970 C.3          1 FAD1384   0.0000
     7 O4B        -36.3790     3.8530    -1.2110 O.3          1 FAD1384   0.0000
     8 C3B        -35.2090     5.2010    -2.7350 C.3          1 FAD1384   0.0000
     9 O3B        -35.7810     6.2580    -3.4810 O.3          1 FAD1384   0.0000
    10 C2B        -34.9120     5.6350    -1.2890 C.3          1 FAD1384   0.0000
    11 O2B        -34.9140     7.0490    -1.1450 O.3          1 FAD1384   0.0000
    12 C1B        -36.1110     5.0900    -0.5610 C.3          1 FAD1384   0.0000
    13 N9A        -35.9050     4.7240     0.8610 N.pl3        1 FAD1384   0.0000
    14 C8A        -35.0250     3.8290     1.3520 C.2          1 FAD1384   0.0000
    15 N7A        -35.1490     3.7450     2.6690 N.2          1 FAD1384   0.0000
    16 C5A        -36.1370     4.5850     3.0030 C.ar         1 FAD1384   0.0000
    17 C6A        -36.7180     4.9440     4.2080 C.ar         1 FAD1384   0.0000
    18 N6A        -36.2670     4.3730     5.3210 N.pl3        1 FAD1384   0.0000
    19 N1A        -37.7240     5.8650     4.2100 N.ar         1 FAD1384   0.0000
    20 C2A        -38.1540     6.4560     3.0960 C.ar         1 FAD1384   0.0000
    21 N3A        -37.6090     6.1280     1.9340 N.ar         1 FAD1384   0.0000
    22 C4A        -36.6160     5.2150     1.8630 C.ar         1 FAD1384   0.0000
    23 N1         -30.7790    -1.1320   -14.2860 N.2          1 FAD1384   0.0000
    24 C2         -30.9610    -1.3670   -15.6160 C.2          1 FAD1384   0.0000
    25 O2         -31.8360    -2.1570   -15.9700 O.2          1 FAD1384   0.0000
    26 N3         -30.1530    -0.7130   -16.5510 N.pl3        1 FAD1384   0.0000
    27 C4         -29.1460     0.1710   -16.1150 C.2          1 FAD1384   0.0000
    28 O4         -28.4510     0.7510   -16.9470 O.2          1 FAD1384   0.0000
    29 C4X        -28.9400     0.4110   -14.7620 C.2          1 FAD1384   0.0000
    30 N5         -27.9520     1.3100   -14.2990 N.2          1 FAD1384   0.0000
    31 C5X        -27.6070     1.2780   -12.9200 C.ar         1 FAD1384   0.0000
    32 C6         -26.4670     1.9530   -12.4580 C.ar         1 FAD1384   0.0000
    33 C7         -26.1240     1.8590   -11.0910 C.ar         1 FAD1384   0.0000
    34 C7M        -24.8790     2.6240   -10.6140 C.3          1 FAD1384   0.0000
    35 C8         -26.9080     1.1010   -10.1850 C.ar         1 FAD1384   0.0000
    36 C8M        -26.5670     1.0130    -8.6780 C.3          1 FAD1384   0.0000
    37 C9         -28.0440     0.4440   -10.6580 C.ar         1 FAD1384   0.0000
    38 C9A        -28.3920     0.5240   -12.0200 C.ar         1 FAD1384   0.0000
    39 N10        -29.5510    -0.1160   -12.4980 N.pl3        1 FAD1384   0.0000
    40 C10        -29.7590    -0.2600   -13.8580 C.2          1 FAD1384   0.0000
    41 C1'        -30.5060    -0.7960   -11.5920 C.3          1 FAD1384   0.0000
    42 C2'        -31.6190     0.1560   -11.1210 C.3          1 FAD1384   0.0000
    43 O2'        -31.0470     1.3150   -10.4900 O.3          1 FAD1384   0.0000
    44 C3'        -32.4480    -0.6220   -10.1060 C.3          1 FAD1384   0.0000
    45 O3'        -33.0610    -1.7420   -10.7460 O.3          1 FAD1384   0.0000
    46 C4'        -33.5140     0.2360    -9.5040 C.3          1 FAD1384   0.0000
    47 O4'        -32.8250     1.2640    -8.7570 O.3          1 FAD1384   0.0000
    48 C5'        -34.3880    -0.5770    -8.5630 C.3          1 FAD1384   0.0000
    49 O5'        -35.2840     0.3170    -7.8710 O.3          1 FAD1384   0.0000
    50 P          -36.0440    -0.0520    -6.5200 P.3          1 FAD1384   0.0000
    51 O1P        -37.4320     0.4620    -6.5230 O.co2        1 FAD1384   0.0000
    52 O2P        -36.1140    -1.5940    -6.3200 O.co2        1 FAD1384  -1.0000
    53 O3P        -35.0810     0.4850    -5.3770 O.3          1 FAD1384   0.0000
    54 H5B1       -34.7364     2.5707    -2.6547 H            1 FAD1384   0.0000
    55 H5B2       -36.2381     1.9700    -2.8796 H            1 FAD1384   0.0000
    56 H4B        -37.0976     4.2732    -3.0447 H            1 FAD1384   0.0000
    57 H3B        -34.3755     4.8718    -3.1788 H            1 FAD1384   0.0000
    58 H5         -36.5961     6.5953    -3.0101 H            1 FAD1384   0.0000
    59 H2B        -34.0616     5.2318    -0.9510 H            1 FAD1384   0.0000
    60 H7         -35.8114     7.4088    -1.4004 H            1 FAD1384   0.0000
    61 H1B        -36.8895     5.7107    -0.6540 H            1 FAD1384   0.0000
    62 H8A        -34.3738     3.3050     0.8030 H            1 FAD1384   0.0000
    63 H6A1       -36.6685     4.6138     6.2046 H            1 FAD1384   0.0000
    64 H6A2       -35.5263     3.7028     5.2744 H            1 FAD1384   0.0000
    65 H2A        -38.8815     7.1409     3.1367 H            1 FAD1384   0.0000
    66 H13        -30.2897    -0.8725   -17.5287 H            1 FAD1384   0.0000
    67 H14        -25.9063     2.4920   -13.0865 H            1 FAD1384   0.0000
    68 H7M1       -24.7504     2.4734    -9.6338 H            1 FAD1384   0.0000
    69 H7M2       -24.0754     2.2952   -11.1100 H            1 FAD1384   0.0000
    70 H7M3       -25.0013     3.6011   -10.7879 H            1 FAD1384   0.0000
    71 H8M1       -27.2389     0.4328    -8.2175 H            1 FAD1384   0.0000
    72 H8M2       -25.6543     0.6202    -8.5651 H            1 FAD1384   0.0000
    73 H8M3       -26.5875     1.9291    -8.2776 H            1 FAD1384   0.0000
    74 H21        -28.6126    -0.0851   -10.0282 H            1 FAD1384   0.0000
    75 H1'1       -30.0095    -1.1348   -10.7928 H            1 FAD1384   0.0000
    76 H1'2       -30.9214    -1.5654   -12.0772 H            1 FAD1384   0.0000
    77 H2'        -32.1894     0.4304   -11.8952 H            1 FAD1384   0.0000
    78 H25        -31.6757     1.6593    -9.7928 H            1 FAD1384   0.0000
    79 H3'        -31.8463    -0.9519    -9.3786 H            1 FAD1384   0.0000
    80 H27        -32.4525    -2.5334   -10.6878 H            1 FAD1384   0.0000
    81 H4'        -34.0725     0.6483   -10.2238 H            1 FAD1384   0.0000
    82 H29        -33.4949     1.8713    -8.3298 H            1 FAD1384   0.0000
    83 H5'1       -33.8128    -1.0560    -7.8999 H            1 FAD1384   0.0000
    84 H5'2       -34.9174    -1.2435    -9.0879 H            1 FAD1384   0.0000
@<TRIPOS>BOND
     1    1    2      ar
     2    1    3      ar
     3    1    4       1
     4    1   53       1
     5    4    5       1
     6    5    6       1
     7    6    7       1
     8    6    8       1
     9    7   12       1
    10    8    9       1
    11    8   10       1
    12   10   11       1
    13   10   12       1
    14   12   13       1
    15   13   14       1
    16   13   22       1
    17   14   15       2
    18   15   16       1
    19   16   17      ar
    20   16   22      ar
    21   17   18       1
    22   17   19      ar
    23   19   20      ar
    24   20   21      ar
    25   21   22      ar
    26   23   24       1
    27   23   40       2
    28   24   25       2
    29   24   26       1
    30   26   27       1
    31   27   28       2
    32   27   29       1
    33   29   30       2
    34   29   40       1
    35   30   31       1
    36   31   32      ar
    37   31   38      ar
    38   32   33      ar
    39   33   34       1
    40   33   35      ar
    41   35   36       1
    42   35   37      ar
    43   37   38      ar
    44   38   39       1
    45   39   40       1
    46   39   41       1
    47   41   42       1
    48   42   43       1
    49   42   44       1
    50   44   45       1
    51   44   46       1
    52   46   47       1
    53   46   48       1
    54   48   49       1
    55   49   50       1
    56   50   51      ar
    57   50   52      ar
    58   50   53       1
    59   48   84       1
    60    5   54       1
    61    5   55       1
    62    6   56       1
    63    8   57       1
    64    9   58       1
    65   10   59       1
    66   11   60       1
    67   12   61       1
    68   14   62       1
    69   18   63       1
    70   18   64       1
    71   20   65       1
    72   26   66       1
    73   32   67       1
    74   34   68       1
    75   34   69       1
    76   34   70       1
    77   36   71       1
    78   36   72       1
    79   36   73       1
    80   37   74       1
    81   41   75       1
    82   41   76       1
    83   42   77       1
    84   43   78       1
    85   44   79       1
    86   45   80       1
    87   46   81       1
    88   47   82       1
    89   48   83       1
@<TRIPOS>SUBSTRUCTURE
     1 FAD1384     1 GROUP             4 A     FAD     0 **** FAD A1384
