@<TRIPOS>MOLECULE
4x2d_ATP_1_ligand
   43    45     1     0     0
SMALL
NO_CHARGES


@<TRIPOS>ATOM
     1 PG         -20.5980   -15.7980    44.1530 P.3          1 ATP302   0.0000
     2 O1G        -21.0350   -16.3060    42.8000 O.co2        1 ATP302   0.0000
     3 O2G        -19.0980   -15.5680    44.1950 O.co2        1 ATP302  -1.0000
     4 O3G        -21.3120   -14.5190    44.5210 O.co2        1 ATP302  -1.0000
     5 PB         -21.0940   -16.5200    46.8650 P.3          1 ATP302   0.0000
     6 O1B        -22.5170   -16.1220    47.1770 O.co2        1 ATP302   0.0000
     7 O2B        -20.1800   -15.3700    47.1930 O.co2        1 ATP302  -1.0000
     8 O3B        -20.9670   -16.9210    45.2810 O.3          1 ATP302   0.0000
     9 PA         -19.2830   -18.6940    47.3380 P.3          1 ATP302   0.0000
    10 O1A        -19.6830   -20.0410    46.7800 O.co2        1 ATP302   0.0000
    11 O2A        -18.4850   -18.8480    48.6120 O.co2        1 ATP302  -1.0000
    12 O3A        -20.6430   -17.8430    47.7010 O.3          1 ATP302   0.0000
    13 O5'        -18.3470   -17.9050    46.2350 O.3          1 ATP302   0.0000
    14 C5'        -16.9600   -17.9570    46.3960 C.3          1 ATP302   0.0000
    15 C4'        -16.2980   -18.8050    45.2740 C.3          1 ATP302   0.0000
    16 O4'        -15.0850   -19.1040    45.6530 O.3          1 ATP302   0.0000
    17 C3'        -16.9770   -20.1780    45.0920 C.3          1 ATP302   0.0000
    18 O3'        -17.9730   -20.1460    44.1680 O.3          1 ATP302   0.0000
    19 C2'        -15.8330   -21.0890    44.6040 C.3          1 ATP302   0.0000
    20 O2'        -15.7870   -21.1130    43.1100 O.3          1 ATP302   0.0000
    21 C1'        -14.7320   -20.5800    45.0930 C.3          1 ATP302   0.0000
    22 N9         -14.2540   -21.4110    46.1700 N.pl3        1 ATP302   0.0000
    23 C8         -14.9700   -21.9570    47.1590 C.2          1 ATP302   0.0000
    24 N7         -14.1520   -22.6570    47.9420 N.2          1 ATP302   0.0000
    25 C5         -12.9190   -22.5480    47.4340 C.ar         1 ATP302   0.0000
    26 C6         -11.7190   -23.0730    47.8480 C.ar         1 ATP302   0.0000
    27 N6         -11.4530   -23.9180    48.9960 N.pl3        1 ATP302   0.0000
    28 N1         -10.6130   -22.8220    47.1610 N.ar         1 ATP302   0.0000
    29 C2         -10.6650   -22.0440    46.0470 C.ar         1 ATP302   0.0000
    30 N3         -11.8440   -21.5250    45.6370 N.ar         1 ATP302   0.0000
    31 C4         -12.9730   -21.7810    46.3380 C.ar         1 ATP302   0.0000
    32 H5'1       -16.7493   -18.3676    47.2831 H            1 ATP302   0.0000
    33 H5'2       -16.5923   -17.0276    46.3631 H            1 ATP302   0.0000
    34 H4'        -16.2843   -18.3002    44.4109 H            1 ATP302   0.0000
    35 H3'        -17.3298   -20.5069    45.9680 H            1 ATP302   0.0000
    36 H5         -18.3808   -21.0554    44.0859 H            1 ATP302   0.0000
    37 H2'        -15.9638   -22.0162    44.9549 H            1 ATP302   0.0000
    38 H7         -15.9190   -22.0503    42.7875 H            1 ATP302   0.0000
    39 H1'        -14.0374   -20.5164    44.3764 H            1 ATP302   0.0000
    40 H9         -15.9564   -21.8561    47.2888 H            1 ATP302   0.0000
    41 H10        -10.5216   -24.2315    49.1810 H            1 ATP302   0.0000
    42 H11        -12.2010   -24.1873    49.6027 H            1 ATP302   0.0000
    43 H12         -9.8299   -21.8555    45.5303 H            1 ATP302   0.0000
@<TRIPOS>BOND
     1    1    2      ar
     2    1    3      ar
     3    1    4      ar
     4    1    8       1
     5    5    6      ar
     6    5    7      ar
     7    5    8       1
     8    5   12       1
     9    9   10      ar
    10    9   11      ar
    11    9   12       1
    12    9   13       1
    13   13   14       1
    14   14   15       1
    15   15   16       1
    16   15   17       1
    17   16   21       1
    18   17   18       1
    19   17   19       1
    20   19   20       1
    21   19   21       1
    22   21   22       1
    23   22   23       1
    24   22   31       1
    25   23   24       2
    26   24   25       1
    27   25   26      ar
    28   25   31      ar
    29   26   27       1
    30   26   28      ar
    31   28   29      ar
    32   29   30      ar
    33   30   31      ar
    34   29   43       1
    35   27   42       1
    36   27   41       1
    37   23   40       1
    38   14   32       1
    39   14   33       1
    40   15   34       1
    41   17   35       1
    42   18   36       1
    43   19   37       1
    44   20   38       1
    45   21   39       1
@<TRIPOS>SUBSTRUCTURE
     1 ATP302      1 GROUP             4 A     ATP     0 **** ATP A 302
