@<TRIPOS>MOLECULE
4but_31F_2_ligand
   32    34     1     0     0
SMALL
NO_CHARGES


@<TRIPOS>ATOM
     1 OAB        -54.1560   -41.4070    23.7500 O.2          1 31F3165   0.0000
     2 OAD        -54.4900   -43.7320    23.8340 O.2          1 31F3165   0.0000
     3 CAE        -54.1680   -42.6550    21.5610 C.ar         1 31F3165   0.0000
     4 CAJ        -53.3290   -42.0100    20.6690 C.ar         1 31F3165   0.0000
     5 CAI        -53.6030   -42.0160    19.3020 C.ar         1 31F3165   0.0000
     6 CAF        -55.3220   -43.2660    21.0710 C.ar         1 31F3165   0.0000
     7 CAG        -55.6250   -43.2830    19.7000 C.ar         1 31F3165   0.0000
     8 CAH        -54.7900   -42.6140    18.8120 C.ar         1 31F3165   0.0000
     9 CAK        -55.0540   -42.6400    17.3570 C.2          1 31F3165   0.0000
    10 CAT        -56.2330   -43.7050    15.6080 C.ar         1 31F3165   0.0000
    11 CAS        -57.1720   -44.6430    15.1670 C.ar         1 31F3165   0.0000
    12 CAR        -57.4220   -44.7820    13.8050 C.ar         1 31F3165   0.0000
    13 CAQ        -56.7570   -44.0060    12.8370 C.ar         1 31F3165   0.0000
    14 CAP        -55.8020   -43.0580    13.2500 C.ar         1 31F3165   0.0000
    15 CAO        -55.5340   -42.8950    14.6270 C.ar         1 31F3165   0.0000
    16 CAM        -54.5760   -41.8860    15.1680 C.2          1 31F3165   0.0000
    17 N1         -54.3580   -41.8510    16.4960 N.pl3        1 31F3165   0.0000
    18 N10        -52.2640   -42.9480    23.3790 N.3          1 31F3165   0.0000
    19 OAN        -53.9590   -41.1280    14.3890 O.2          1 31F3165   0.0000
    20 N          -55.9500   -43.5520    16.9200 N.2          1 31F3165   0.0000
    21 S          -53.8190   -42.6530    23.1510 S.o2         1 31F3165   0.0000
    22 HAJ        -52.5175   -41.5345    21.0087 H            1 31F3165   0.0000
    23 HAI        -52.9579   -41.5958    18.6638 H            1 31F3165   0.0000
    24 HAF        -55.9508   -43.7039    21.7135 H            1 31F3165   0.0000
    25 HAG        -56.4318   -43.7705    19.3662 H            1 31F3165   0.0000
    26 HAS        -57.6619   -45.2116    15.8278 H            1 31F3165   0.0000
    27 HAR        -58.0968   -45.4558    13.5039 H            1 31F3165   0.0000
    28 HAQ        -56.9610   -44.1270    11.8655 H            1 31F3165   0.0000
    29 HAP        -55.3169   -42.5040    12.5734 H            1 31F3165   0.0000
    30 H9         -53.6653   -41.2277    16.8590 H            1 31F3165   0.0000
    31 H10        -52.0256   -43.8234    22.9585 H            1 31F3165   0.0000
    32 H11        -51.7217   -42.2190    22.9613 H            1 31F3165   0.0000
@<TRIPOS>BOND
     1    1   21       2
     2    2   21       2
     3    3    4      ar
     4    3    6      ar
     5    3   21       1
     6    4    5      ar
     7    5    8      ar
     8    6    7      ar
     9    7    8      ar
    10    8    9       1
    11    9   17       1
    12    9   20       2
    13   10   11      ar
    14   10   15      ar
    15   10   20       1
    16   11   12      ar
    17   12   13      ar
    18   13   14      ar
    19   14   15      ar
    20   15   16       1
    21   16   17       1
    22   16   19       2
    23   18   21       1
    24    4   22       1
    25    5   23       1
    26    6   24       1
    27    7   25       1
    28   11   26       1
    29   12   27       1
    30   13   28       1
    31   14   29       1
    32   17   30       1
    33   18   31       1
    34   18   32       1
@<TRIPOS>SUBSTRUCTURE
     1 31F3165     1 GROUP             4 B     31F     0 **** 31F B3165
