@<TRIPOS>MOLECULE
2x45_HSM_1_ligand
   18    18     1     0     0
SMALL
NO_CHARGES


@<TRIPOS>ATOM
     1 N          -12.3600   -30.3700    14.9320 N.4          1 HSM1160   1.0000
     2 CA         -12.8860   -31.3610    15.9130 C.3          1 HSM1160   0.0000
     3 CB         -14.2600   -30.9290    16.3960 C.3          1 HSM1160   0.0000
     4 CG         -14.8360   -31.8800    17.4270 C.2          1 HSM1160   0.0000
     5 ND1        -14.2950   -32.1180    18.6420 N.2          1 HSM1160   0.0000
     6 CD2        -15.9290   -32.6320    17.3390 C.2          1 HSM1160   0.0000
     7 CE1        -15.0630   -32.9740    19.2710 C.2          1 HSM1160   0.0000
     8 NE2        -16.0930   -33.3380    18.4920 N.pl3        1 HSM1160   0.0000
     9 H1         -11.4559   -30.6596    14.6178 H            1 HSM1160   0.0000
    10 H2         -12.9816   -30.3121    14.1508 H            1 HSM1160   0.0000
    11 HA1        -12.2630   -31.4185    16.6931 H            1 HSM1160   0.0000
    12 HA2        -12.9550   -32.2572    15.4748 H            1 HSM1160   0.0000
    13 HB1        -14.8792   -30.8924    15.6116 H            1 HSM1160   0.0000
    14 HB2        -14.1854   -30.0193    16.8046 H            1 HSM1160   0.0000
    15 HD2        -16.5379   -32.6729    16.5468 H            1 HSM1160   0.0000
    16 HE1        -14.9038   -33.3084    20.1999 H            1 HSM1160   0.0000
    17 H9         -12.2896   -29.4734    15.3691 H            1 HSM1160   0.0000
    18 HE2        -16.8222   -33.9864    18.7104 H            1 HSM1160   0.0000
@<TRIPOS>BOND
     1    1    2       1
     2    2    3       1
     3    3    4       1
     4    4    5       1
     5    4    6       2
     6    5    7       2
     7    6    8       1
     8    7    8       1
     9    1    9       1
    10    1   10       1
    11    2   11       1
    12    2   12       1
    13    3   13       1
    14    3   14       1
    15    1   17       1
    16    6   15       1
    17    7   16       1
    18    8   18       1
@<TRIPOS>SUBSTRUCTURE
     1 HSM1160     1 GROUP             4 A     HSM     0 **** HSM A1160
