@<TRIPOS>MOLECULE
5fsy_AR6_1_ligand
   57    60     1     0     0
SMALL
NO_CHARGES


@<TRIPOS>ATOM
     1 N1          33.2230     1.9270    12.8600 N.ar         1 AR61262   0.0000
     2 C2          32.2850     1.5880    13.7750 C.ar         1 AR61262   0.0000
     3 N3          31.2560     2.3890    14.0900 N.ar         1 AR61262   0.0000
     4 C4          31.0940     3.5910    13.4300 C.ar         1 AR61262   0.0000
     5 C5          32.0340     3.9840    12.4010 C.ar         1 AR61262   0.0000
     6 C6          33.1460     3.0720    12.1720 C.ar         1 AR61262   0.0000
     7 N6          34.0510     3.3590    11.2600 N.pl3        1 AR61262   0.0000
     8 N7          31.6540     5.1860    11.9210 N.2          1 AR61262   0.0000
     9 C8          30.5460     5.5260    12.5620 C.2          1 AR61262   0.0000
    10 N9          30.2150     4.5740    13.4610 N.pl3        1 AR61262   0.0000
    11 PA          26.3880     6.1430    10.9470 P.3          1 AR61262   0.0000
    12 PB          23.5820     6.6130    10.3470 P.3          1 AR61262   0.0000
    13 C1'         29.0530     4.6020    14.3600 C.3          1 AR61262   0.0000
    14 O1A         27.2050     4.9720    10.4950 O.co2        1 AR61262   0.0000
    15 O1B         22.3910     5.7160    10.5700 O.co2        1 AR61262   0.0000
    16 C1D         26.1250     5.3340     5.9430 C.3          1 AR61262   0.0000
    17 O1D         26.9130     5.8500     4.8630 O.3          1 AR61262   0.0000
    18 C2'         28.6360     5.9990    14.7930 C.3          1 AR61262   0.0000
    19 O2'         29.6230     6.5840    15.6510 O.3          1 AR61262   0.0000
    20 O2A         26.8560     7.4920    10.5380 O.co2        1 AR61262  -1.0000
    21 O2B         23.6110     7.9260    11.1210 O.co2        1 AR61262  -1.0000
    22 C2D         25.0020     4.4530     5.4510 C.3          1 AR61262   0.0000
    23 O2D         25.2310     3.8150     4.1980 O.3          1 AR61262   0.0000
    24 C3'         27.2680     5.6580    15.3480 C.3          1 AR61262   0.0000
    25 O3'         27.3850     5.0340    16.6410 O.3          1 AR61262   0.0000
    26 O3A         24.9070     5.7480    10.4820 O.3          1 AR61262   0.0000
    27 C3D         23.7770     5.3470     5.4310 C.3          1 AR61262   0.0000
    28 O3D         23.5780     5.9370     4.1320 O.3          1 AR61262   0.0000
    29 C4'         26.7400     4.5960    14.3810 C.3          1 AR61262   0.0000
    30 O4'         27.8930     4.1010    13.7280 O.3          1 AR61262   0.0000
    31 C4D         24.0950     6.3670     6.4980 C.3          1 AR61262   0.0000
    32 O4D         25.5150     6.3840     6.7210 O.3          1 AR61262   0.0000
    33 C5'         25.7680     5.0160    13.2680 C.3          1 AR61262   0.0000
    34 O5'         26.2930     6.1290    12.5550 O.3          1 AR61262   0.0000
    35 C5D         23.4060     6.0290     7.7990 C.3          1 AR61262   0.0000
    36 O5D         23.6310     7.0280     8.7940 O.3          1 AR61262   0.0000
    37 H1          32.3622     0.7036    14.2354 H            1 AR61262   0.0000
    38 H2          33.9904     4.2156    10.7477 H            1 AR61262   0.0000
    39 H3          34.7991     2.7204    11.0796 H            1 AR61262   0.0000
    40 H4          30.0287     6.3669    12.4031 H            1 AR61262   0.0000
    41 H1'         29.2504     4.0510    15.1708 H            1 AR61262   0.0000
    42 H1D         26.7167     4.7942     6.5418 H            1 AR61262   0.0000
    43 H7          26.3392     5.9507     4.0502 H            1 AR61262   0.0000
    44 H2'         28.5259     6.5735    13.9819 H            1 AR61262   0.0000
    45 H9          29.2111     6.7952    16.5374 H            1 AR61262   0.0000
    46 H2D         24.8498     3.7396     6.1350 H            1 AR61262   0.0000
    47 H11         25.1925     2.8229     4.3171 H            1 AR61262   0.0000
    48 H3'         26.6712     6.4598    15.3776 H            1 AR61262   0.0000
    49 H13         27.8436     5.6592    17.2726 H            1 AR61262   0.0000
    50 H3D         22.9679     4.8212     5.6934 H            1 AR61262   0.0000
    51 H15         24.3768     6.4879     3.8902 H            1 AR61262   0.0000
    52 H4'         26.3252     3.8554    14.9097 H            1 AR61262   0.0000
    53 H4D         23.7973     7.2709     6.1910 H            1 AR61262   0.0000
    54 H5'1        24.8894     5.2677    13.6738 H            1 AR61262   0.0000
    55 H5'2        25.6369     4.2511    12.6373 H            1 AR61262   0.0000
    56 H5D1        23.7571     5.1544     8.1334 H            1 AR61262   0.0000
    57 H5D2        22.4227     5.9523     7.6340 H            1 AR61262   0.0000
@<TRIPOS>BOND
     1    1    2      ar
     2    1    6      ar
     3    2    3      ar
     4    3    4      ar
     5    4    5      ar
     6    4   10       1
     7    5    6      ar
     8    5    8       1
     9    6    7       1
    10    8    9       2
    11    9   10       1
    12   10   13       1
    13   11   14      ar
    14   11   20      ar
    15   11   26       1
    16   11   34       1
    17   12   15      ar
    18   12   21      ar
    19   12   26       1
    20   12   36       1
    21   13   18       1
    22   13   30       1
    23   16   17       1
    24   16   22       1
    25   16   32       1
    26   18   19       1
    27   18   24       1
    28   22   23       1
    29   22   27       1
    30   24   25       1
    31   24   29       1
    32   27   28       1
    33   27   31       1
    34   29   30       1
    35   29   33       1
    36   31   32       1
    37   31   35       1
    38   33   34       1
    39   35   36       1
    40    2   37       1
    41    7   38       1
    42    7   39       1
    43    9   40       1
    44   13   41       1
    45   35   57       1
    46   35   56       1
    47   16   42       1
    48   17   43       1
    49   18   44       1
    50   19   45       1
    51   22   46       1
    52   23   47       1
    53   24   48       1
    54   25   49       1
    55   27   50       1
    56   28   51       1
    57   29   52       1
    58   31   53       1
    59   33   54       1
    60   33   55       1
@<TRIPOS>SUBSTRUCTURE
     1 AR61262     1 GROUP             4 A     AR6     0 **** AR6 A1262
