@<TRIPOS>MOLECULE
1xng_DND_2_ligand
   68    72     1     0     0
SMALL
NO_CHARGES


@<TRIPOS>ATOM
     1 PN         -24.5950    22.6430     2.1400 P.3          1 DND302   0.0000
     2 O11        -24.3830    24.0810     2.5030 O.co2        1 DND302   0.0000
     3 O12        -25.8450    22.5170     1.2390 O.co2        1 DND302  -1.0000
     4 O3P        -23.3140    22.1990     1.4040 O.3          1 DND302   0.0000
     5 O5D        -24.5730    21.6240     3.4200 O.3          1 DND302   0.0000
     6 C5D        -25.0730    20.3070     3.1080 C.3          1 DND302   0.0000
     7 C4D        -26.5230    20.3360     3.6460 C.3          1 DND302   0.0000
     8 O4D        -27.2220    19.0790     3.3800 O.3          1 DND302   0.0000
     9 C3D        -26.8990    20.5400     5.1270 C.3          1 DND302   0.0000
    10 O3D        -28.2030    20.9450     5.6080 O.3          1 DND302   0.0000
    11 C2D        -26.6420    19.2260     5.7750 C.3          1 DND302   0.0000
    12 O2D        -26.9530    18.8370     7.1330 O.3          1 DND302   0.0000
    13 C1D        -26.9170    18.3690     4.5850 C.3          1 DND302   0.0000
    14 N1N        -26.7770    16.9360     4.6180 N.ar         1 DND302   1.0000
    15 C6N        -25.4370    16.5700     4.3210 C.ar         1 DND302   0.0000
    16 C5N        -25.0390    15.2250     4.2620 C.ar         1 DND302   0.0000
    17 C4N        -26.0210    14.2680     4.5090 C.ar         1 DND302   0.0000
    18 C3N        -27.3650    14.6410     4.8070 C.ar         1 DND302   0.0000
    19 C2N        -27.8100    16.0080     4.8740 C.ar         1 DND302   0.0000
    20 C7N        -28.3120    13.4790     5.0590 C.2          1 DND302   0.0000
    21 O7N        -29.5150    13.7760     5.3350 O.co2        1 DND302   0.0000
    22 O8N        -27.7430    12.3480     4.9580 O.co2        1 DND302  -1.0000
    23 PA         -22.9870    21.6180    -0.0650 P.3          1 DND302   0.0000
    24 O13        -21.5060    21.5840    -0.0010 O.co2        1 DND302   0.0000
    25 O14        -23.6910    20.3560    -0.3090 O.co2        1 DND302  -1.0000
    26 O5B        -23.5130    22.7880    -1.0800 O.3          1 DND302   0.0000
    27 C5B        -22.9290    24.0650    -0.8740 C.3          1 DND302   0.0000
    28 C4B        -21.8610    24.3080    -1.9120 C.3          1 DND302   0.0000
    29 O4B        -22.5470    24.3130    -3.2050 O.3          1 DND302   0.0000
    30 C3B        -21.1990    25.6020    -1.7080 C.3          1 DND302   0.0000
    31 O3B        -20.1740    25.8620    -0.7840 O.3          1 DND302   0.0000
    32 C2B        -20.7820    25.9700    -3.1160 C.3          1 DND302   0.0000
    33 O2B        -19.4280    25.6450    -3.3020 O.3          1 DND302   0.0000
    34 C1B        -21.8770    25.3570    -3.9390 C.3          1 DND302   0.0000
    35 N9A        -22.9740    26.1790    -4.4460 N.pl3        1 DND302   0.0000
    36 C4A        -23.3610    26.2540    -5.7290 C.ar         1 DND302   0.0000
    37 N3A        -22.9490    25.6860    -6.9100 N.ar         1 DND302   0.0000
    38 C2A        -23.5880    25.9910    -8.0690 C.ar         1 DND302   0.0000
    39 N1A        -24.6330    26.8580    -8.0470 N.ar         1 DND302   0.0000
    40 C6A        -25.1080    27.4660    -6.9290 C.ar         1 DND302   0.0000
    41 C5A        -24.4290    27.1370    -5.7290 C.ar         1 DND302   0.0000
    42 N7A        -24.7120    27.6090    -4.4930 N.2          1 DND302   0.0000
    43 C8A        -23.8070    27.0080    -3.7250 C.2          1 DND302   0.0000
    44 N6A        -26.1370    28.2970    -6.9620 N.pl3        1 DND302   0.0000
    45 H5D1       -24.5346    19.6016     3.5689 H            1 DND302   0.0000
    46 H5D2       -25.0608    20.1443     2.1214 H            1 DND302   0.0000
    47 H4D        -27.0043    21.0444     3.1297 H            1 DND302   0.0000
    48 H3D        -26.2366    21.1852     5.5078 H            1 DND302   0.0000
    49 H5         -28.0991    21.4618     6.4578 H            1 DND302   0.0000
    50 H2D        -25.6423    19.2131     5.7949 H            1 DND302   0.0000
    51 H7         -27.1353    17.8543     7.1648 H            1 DND302   0.0000
    52 H1D        -27.8862    18.3053     4.8230 H            1 DND302   0.0000
    53 H6N        -24.7614    17.2871     4.1499 H            1 DND302   0.0000
    54 H5N        -24.0960    14.9663     4.0527 H            1 DND302   0.0000
    55 H4N        -25.7782    13.2985     4.4766 H            1 DND302   0.0000
    56 H2N        -28.7520    16.2729     5.0802 H            1 DND302   0.0000
    57 H5B1       -22.5206    24.1007     0.0381 H            1 DND302   0.0000
    58 H5B2       -23.6343    24.7697    -0.9512 H            1 DND302   0.0000
    59 H4B        -21.1857    23.5709    -1.8864 H            1 DND302   0.0000
    60 H3B        -21.9328    26.2401    -1.4747 H            1 DND302   0.0000
    61 H17        -19.2869    25.6969    -1.2150 H            1 DND302   0.0000
    62 H2B        -20.8648    26.9629    -3.2016 H            1 DND302   0.0000
    63 H19        -18.8701    26.1524    -2.6453 H            1 DND302   0.0000
    64 H1B        -21.4430    24.9267    -4.7305 H            1 DND302   0.0000
    65 H2A        -23.2915    25.5806    -8.9313 H            1 DND302   0.0000
    66 H8A        -23.7387    27.1424    -2.7364 H            1 DND302   0.0000
    67 H6A1       -26.4599    28.7268    -6.1188 H            1 DND302   0.0000
    68 H6A2       -26.5919    28.4953    -7.8302 H            1 DND302   0.0000
@<TRIPOS>BOND
     1    1    2      ar
     2    1    3      ar
     3    1    4       1
     4    1    5       1
     5    4   23       1
     6    5    6       1
     7    6    7       1
     8    7    8       1
     9    7    9       1
    10    8   13       1
    11    9   10       1
    12    9   11       1
    13   11   12       1
    14   11   13       1
    15   13   14       1
    16   14   15      ar
    17   14   19      ar
    18   15   16      ar
    19   16   17      ar
    20   17   18      ar
    21   18   19      ar
    22   18   20       1
    23   20   21      ar
    24   20   22      ar
    25   23   24      ar
    26   23   25      ar
    27   23   26       1
    28   26   27       1
    29   27   28       1
    30   28   29       1
    31   28   30       1
    32   29   34       1
    33   30   31       1
    34   30   32       1
    35   32   33       1
    36   32   34       1
    37   34   35       1
    38   35   36       1
    39   35   43       1
    40   36   37      ar
    41   36   41      ar
    42   37   38      ar
    43   38   39      ar
    44   39   40      ar
    45   40   41      ar
    46   40   44       1
    47   41   42       1
    48   42   43       2
    49   44   68       1
    50    6   45       1
    51    6   46       1
    52    7   47       1
    53    9   48       1
    54   10   49       1
    55   11   50       1
    56   12   51       1
    57   13   52       1
    58   15   53       1
    59   16   54       1
    60   17   55       1
    61   19   56       1
    62   44   67       1
    63   43   66       1
    64   27   57       1
    65   27   58       1
    66   28   59       1
    67   30   60       1
    68   31   61       1
    69   32   62       1
    70   33   63       1
    71   34   64       1
    72   38   65       1
@<TRIPOS>SUBSTRUCTURE
     1 DND302      1 GROUP             4 B     DND     0 **** DND B 302
