@<TRIPOS>MOLECULE
3ixp_834_1_ligand
   55    58     1     0     0
SMALL
NO_CHARGES


@<TRIPOS>ATOM
     1 C1           8.2890    66.0870    12.6960 C.ar         1 834800   0.0000
     2 C2           8.8680    66.5200    13.9340 C.ar         1 834800   0.0000
     3 C3           8.6130    65.7810    15.1350 C.ar         1 834800   0.0000
     4 C4           7.7910    64.6130    15.1090 C.ar         1 834800   0.0000
     5 C5           7.2190    64.1790    13.8880 C.ar         1 834800   0.0000
     6 C6           7.4590    64.9140    12.6460 C.ar         1 834800   0.0000
     7 C7           6.8620    64.5230    11.3390 C.2          1 834800   0.0000
     8 CL8          6.2360    62.7530    13.9760 Cl           1 834800   0.0000
     9 N9           7.5510    64.1240    10.2840 N.2          1 834800   1.0000
    10 C10          6.5900    63.8340     9.2250 C.2          1 834800   0.0000
    11 C11          5.3270    64.0660     9.6870 C.2          1 834800   0.0000
    12 N12          5.5300    64.5350    11.0950 N.pl3        1 834800   0.0000
    13 C13          7.0560    63.3600     7.8740 C.3          1 834800   0.0000
    14 C17          4.0340    63.8870     8.9160 C.3          1 834800   0.0000
    15 N18          4.7410    64.9190    12.0350 N.am         1 834800   0.0000
    16 C19          4.1670    66.1550    12.1260 C.2          1 834800   0.0000
    17 C24          3.5850    65.1840     8.2680 C.3          1 834800   0.0000
    18 C28          2.9410    63.3260     9.8180 C.3          1 834800   0.0000
    19 O34          4.3290    67.0010    11.2680 O.2          1 834800   0.0000
    20 C35          3.5130    66.4240    13.4050 C.ar         1 834800   0.0000
    21 C36          4.3800    67.1500    14.3010 C.ar         1 834800   0.0000
    22 C37          3.9700    67.5240    15.5980 C.ar         1 834800   0.0000
    23 C38          2.6900    67.1850    16.0460 C.ar         1 834800   0.0000
    24 C39          1.7760    66.4550    15.1860 C.ar         1 834800   0.0000
    25 C40          2.1690    66.0610    13.8440 C.ar         1 834800   0.0000
    26 C41          1.1800    65.3060    12.9780 C.3          1 834800   0.0000
    27 O47          2.3410    67.5850    17.3390 O.3          1 834800   0.0000
    28 C48          1.0990    67.0790    17.8830 C.3          1 834800   0.0000
    29 C49          0.0040    66.9270    16.7850 C.3          1 834800   0.0000
    30 O50          0.4920    66.1320    15.6750 O.3          1 834800   0.0000
    31 H1           8.4641    66.6058    11.8592 H            1 834800   0.0000
    32 H2           9.4475    67.3345    13.9593 H            1 834800   0.0000
    33 H3           9.0140    66.0856    15.9989 H            1 834800   0.0000
    34 H4           7.6196    64.1025    15.9516 H            1 834800   0.0000
    35 H5           6.2643    63.2132     7.2809 H            1 834800   0.0000
    36 H6           7.6542    64.0501     7.4667 H            1 834800   0.0000
    37 H7           7.5590    62.5019     7.9771 H            1 834800   0.0000
    38 H8           4.2011    63.2225     8.1876 H            1 834800   0.0000
    39 H9           4.5309    64.2599    12.7571 H            1 834800   0.0000
    40 H10          2.7320    65.0297     7.7695 H            1 834800   0.0000
    41 H11          3.4376    65.8761     8.9746 H            1 834800   0.0000
    42 H12          4.2896    65.5007     7.6330 H            1 834800   0.0000
    43 H13          2.0981    63.2157     9.2913 H            1 834800   0.0000
    44 H14          3.2283    62.4380    10.1771 H            1 834800   0.0000
    45 H15          2.7794    63.9562    10.5774 H            1 834800   0.0000
    46 H16          5.2993    67.3955    13.9934 H            1 834800   0.0000
    47 H17          4.5929    68.0298    16.1948 H            1 834800   0.0000
    48 H18          0.3289    65.1701    13.4850 H            1 834800   0.0000
    49 H19          0.9934    65.8325    12.1485 H            1 834800   0.0000
    50 H20          1.5653    64.4174    12.7292 H            1 834800   0.0000
    51 H21          0.7699    67.7135    18.5823 H            1 834800   0.0000
    52 H22          1.2679    66.1847    18.2973 H            1 834800   0.0000
    53 H23         -0.2525    67.8338    16.4505 H            1 834800   0.0000
    54 H24         -0.7973    66.4789    17.1814 H            1 834800   0.0000
    55 H25          8.5453    64.0371    10.2230 H            1 834800   0.0000
@<TRIPOS>BOND
     1    1    2      ar
     2    1    6      ar
     3    2    3      ar
     4    3    4      ar
     5    4    5      ar
     6    5    6      ar
     7    5    8       1
     8    6    7       1
     9    7    9       2
    10    7   12       1
    11    9   10       1
    12   10   11       2
    13   10   13       1
    14   11   12       1
    15   11   14       1
    16   12   15       1
    17   14   17       1
    18   14   18       1
    19   15   16      am
    20   16   19       2
    21   16   20       1
    22   20   21      ar
    23   20   25      ar
    24   21   22      ar
    25   22   23      ar
    26   23   24      ar
    27   23   27       1
    28   24   25      ar
    29   24   30       1
    30   25   26       1
    31   27   28       1
    32   28   29       1
    33   29   30       1
    34    1   31       1
    35    2   32       1
    36    3   33       1
    37    4   34       1
    38   13   35       1
    39   13   36       1
    40   13   37       1
    41   14   38       1
    42   15   39       1
    43   17   40       1
    44   17   41       1
    45   17   42       1
    46   18   43       1
    47   18   44       1
    48   18   45       1
    49   21   46       1
    50   22   47       1
    51   26   48       1
    52   26   49       1
    53   26   50       1
    54   28   51       1
    55   28   52       1
    56   29   53       1
    57   29   54       1
    58    9   55       1
@<TRIPOS>SUBSTRUCTURE
     1 834800      1 GROUP             4 D     834     0 **** 834 D 800
