@<TRIPOS>MOLECULE
./coach420/1lzs/ligand.pdb
 85 87 0 0 0
SMALL
GASTEIGER

@<TRIPOS>ATOM
      1  C1        26.2520   14.2450   20.3280 C.3   136  NAG136      0.2586
      2  C2        26.5190   13.1000   21.2940 C.3   136  NAG136      0.1842
      3  C3        25.4710   13.0600   22.3930 C.3   136  NAG136      0.2094
      4  C4        25.0420   14.3900   22.9590 C.3   136  NAG136      0.2136
      5  C5        24.7470   15.3690   21.8070 C.3   136  NAG136      0.1834
      6  C6        24.4340   16.7860   22.2830 C.3   136  NAG136      0.2142
      7  C7        27.5060   10.9970   20.5190 C.2   136  NAG136      0.2420
      8  C8        27.3460    9.7640   19.6710 C.3   136  NAG136      0.0964
      9  N2        26.5230   11.8540   20.5260 N.am  136  NAG136     -0.1992
     10  O1        27.4310   14.5150   19.6220 O.3   136  NAG136     -0.3264
     11  O3        26.0190   12.3490   23.5510 O.3   136  NAG136     -0.2183
     12  O4        23.8570   14.2950   23.7610 O.3   136  NAG136     -0.2176
     13  O5        25.9320   15.4450   21.0120 O.3   136  NAG136     -0.3262
     14  O6        25.6790   17.5300   22.3770 O.3   136  NAG136     -0.2176
     15  O7        28.5320   11.1450   21.1690 O.2   136  NAG136     -0.2733
     16  C1        28.0400   15.8960   15.7370 C.3   137  NAG137      0.2586
     17  C2        27.8260   17.0020   16.7610 C.3   137  NAG137      0.1841
     18  C3        28.0810   16.4020   18.1600 C.3   137  NAG137      0.2062
     19  C4        27.2060   15.1900   18.3530 C.3   137  NAG137      0.1795
     20  C5        27.5200   14.1600   17.2310 C.3   137  NAG137      0.1803
     21  C6        26.6890   12.9050   17.2790 C.3   137  NAG137      0.2141
     22  C7        28.2880   19.2300   15.9450 C.2   137  NAG137      0.2420
     23  C8        29.3260   20.3110   15.7540 C.3   137  NAG137      0.0964
     24  N2        28.7190   18.1190   16.5120 N.am  137  NAG137     -0.1992
     25  O1        27.7220   16.3590   14.4730 O.3   137  NAG137     -0.3264
     26  O3        27.7980   17.4340   19.1360 O.3   137  NAG137     -0.2184
     27  O5        27.1420   14.8230   16.0130 O.3   137  NAG137     -0.3263
     28  O6        25.3060   13.1380   17.2110 O.3   137  NAG137     -0.2176
     29  O7        27.1420   19.3880   15.5820 O.2   137  NAG137     -0.2733
     30  C1        28.7140   15.7750   10.5710 C.3   138  NAG138      0.2586
     31  C2        27.9270   14.6340   11.1620 C.3   138  NAG138      0.1841
     32  C3        27.3640   15.1050   12.4940 C.3   138  NAG138      0.2062
     33  C4        28.4260   15.6340   13.4240 C.3   138  NAG138      0.1795
     34  C5        29.2620   16.6970   12.6620 C.3   138  NAG138      0.1803
     35  C6        30.4000   17.2970   13.4650 C.3   138  NAG138      0.2141
     36  C7        26.7480   12.9050    9.8780 C.2   138  NAG138      0.2420
     37  C8        25.5820   12.5900    8.9630 C.3   138  NAG138      0.0964
     38  N2        26.8240   14.1470   10.3290 N.am  138  NAG138     -0.1992
     39  O1        29.3430   15.3660    9.3950 O.3   138  NAG138     -0.3264
     40  O3        26.6730   14.0200   13.1010 O.3   138  NAG138     -0.2184
     41  O5        29.8100   16.0790   11.4770 O.3   138  NAG138     -0.3263
     42  O6        31.2640   16.3080   14.0280 O.3   138  NAG138     -0.2176
     43  O7        27.5710   12.0120   10.0750 O.2   138  NAG138     -0.2733
     44  C1        30.7670   17.3650    5.9080 C.3   139  NAG139      0.2917
     45  C2        31.2510   17.8820    7.2250 C.3   139  NAG139      0.1870
     46  C3        31.0780   16.8200    8.3280 C.3   139  NAG139      0.2063
     47  C4        29.6450   16.3610    8.4050 C.3   139  NAG139      0.1795
     48  C5        29.2820   15.7560    7.0220 C.3   139  NAG139      0.1803
     49  C6        27.8040   15.3550    6.9800 C.3   139  NAG139      0.2141
     50  C7        32.9130   19.5690    7.7080 C.2   139  NAG139      0.2420
     51  C8        34.3510   19.9900    7.7240 C.3   139  NAG139      0.0964
     52  N2        32.6350   18.3740    7.2270 N.am  139  NAG139     -0.1991
     53  O1        30.5740   18.5120    5.1060 O.3   139  NAG139     -0.1879
     54  O3        31.3790   17.4050    9.6180 O.3   139  NAG139     -0.2184
     55  O5        29.5050   16.7530    6.0310 O.3   139  NAG139     -0.3243
     56  O6        27.0490   16.5380    7.3440 O.3   139  NAG139     -0.2176
     57  O7        32.0410   20.3370    8.1170 O.2   139  NAG139     -0.2733
     58  C2        29.9680   17.2120   -0.7670 C.3   140  NAG140      0.1506
     59  C3        29.7150   17.6720    0.6580 C.3   140  NAG140      0.2063
     60  C4        28.9820   18.9820    0.8080 C.3   140  NAG140      0.2166
     61  C5        27.8000   19.0660   -0.1760 C.3   140  NAG140      0.2175
     62  C6        27.1260   20.4220   -0.2450 C.3   140  NAG140      0.2175
     63  C7        31.4350   15.2660   -1.1930 C.2   140  NAG140      0.2419
     64  C8        31.4820   13.7400   -1.1660 C.3   140  NAG140      0.0964
     65  N2        30.2740   15.7760   -0.7910 N.am  140  NAG140     -0.2026
     66  O1        29.0850   17.3430   -2.9870 O.3   140  NAG140     -0.2176
     67  O3        30.9920   17.7960    1.3340 O.3   140  NAG140     -0.2184
     68  O4        28.4360   19.1780    2.1180 O.3   140  NAG140     -0.2175
     69  O5        28.3120   18.8130   -1.4870 O.3   140  NAG140     -0.2175
     70  O6        26.2180   20.4830   -1.3500 O.3   140  NAG140     -0.2175
     71  O7        32.2970   15.9880   -1.5890 O.2   140  NAG140     -0.2733
     72  C1        27.2880   16.4860   -6.5330 C.3   141  NAG141      0.2917
     73  C2        26.4310   17.3550   -5.6250 C.3   141  NAG141      0.1871
     74  C3        27.2630   17.7500   -4.4290 C.3   141  NAG141      0.2095
     75  C4        28.0370   16.6360   -3.7670 C.3   141  NAG141      0.2136
     76  C5        28.7560   15.7380   -4.8240 C.3   141  NAG141      0.1835
     77  C6        29.3810   14.5220   -4.1850 C.3   141  NAG141      0.2142
     78  C7        24.8330   18.8620   -6.7640 C.2   141  NAG141      0.2421
     79  C8        24.7230   20.0190   -7.7180 C.3   141  NAG141      0.0964
     80  N2        26.0350   18.5880   -6.3130 N.am  141  NAG141     -0.1991
     81  O1        26.5220   15.9810   -7.5720 O.3   141  NAG141     -0.1879
     82  O3        26.4270   18.3610   -3.4300 O.3   141  NAG141     -0.2183
     83  O5        27.8090   15.3650   -5.8310 O.3   141  NAG141     -0.3242
     84  O6        29.1530   13.2580   -4.7910 O.3   141  NAG141     -0.2176
     85  O7        23.8920   18.1180   -6.5710 O.2   141  NAG141     -0.2733
@<TRIPOS>BOND
     1     1    10    1
     2     1    13    1
     3     1     2    1
     4     2     9    1
     5     2     3    1
     6     3     4    1
     7     3    11    1
     8     4     5    1
     9     4    12    1
    10     5    13    1
    11     5     6    1
    12     6    14    1
    13     7     8    1
    14     7     9   am
    15     7    15    2
    16    10    19    1
    17    16    25    1
    18    16    27    1
    19    16    17    1
    20    17    24    1
    21    17    18    1
    22    18    19    1
    23    18    26    1
    24    19    20    1
    25    20    27    1
    26    20    21    1
    27    21    28    1
    28    22    29    2
    29    22    23    1
    30    22    24   am
    31    25    33    1
    32    30    39    1
    33    30    31    1
    34    30    41    1
    35    31    38    1
    36    31    32    1
    37    32    40    1
    38    32    33    1
    39    33    34    1
    40    34    41    1
    41    34    35    1
    42    35    42    1
    43    36    37    1
    44    36    43    2
    45    36    38   am
    46    39    47    1
    47    44    53    1
    48    44    55    1
    49    44    45    1
    50    45    52    1
    51    45    46    1
    52    46    47    1
    53    46    54    1
    54    47    48    1
    55    48    55    1
    56    48    49    1
    57    49    56    1
    58    50    52   am
    59    50    51    1
    60    50    57    2
    61    58    65    1
    62    58    59    1
    63    59    60    1
    64    59    67    1
    65    60    61    1
    66    60    68    1
    67    61    69    1
    68    61    62    1
    69    62    70    1
    70    63    71    2
    71    63    64    1
    72    63    65   am
    73    66    75    1
    74    72    81    1
    75    72    83    1
    76    72    73    1
    77    73    80    1
    78    73    74    1
    79    74    75    1
    80    74    82    1
    81    75    76    1
    82    76    83    1
    83    76    77    1
    84    77    84    1
    85    78    79    1
    86    78    85    2
    87    78    80   am
