@<TRIPOS>MOLECULE
3f6r_FMN_3_ligand
   50    52     1     0     0
SMALL
NO_CHARGES


@<TRIPOS>ATOM
     1 N1         -18.6970     3.2840    20.2260 N.2          1 FMN151   0.0000
     2 C2         -19.7610     3.6340    19.4210 C.2          1 FMN151   0.0000
     3 O2         -20.2670     2.7990    18.6640 O.2          1 FMN151   0.0000
     4 N3         -20.2590     4.9210    19.4660 N.pl3        1 FMN151   0.0000
     5 C4         -19.7030     5.8610    20.3090 C.2          1 FMN151   0.0000
     6 O4         -20.3650     6.8600    20.6070 O.2          1 FMN151   0.0000
     7 C4A        -18.6280     5.5070    21.1170 C.2          1 FMN151   0.0000
     8 N5         -18.0660     6.4470    21.9700 N.2          1 FMN151   0.0000
     9 C5A        -17.0080     6.0840    22.7830 C.ar         1 FMN151   0.0000
    10 C6         -16.4480     7.0260    23.6360 C.ar         1 FMN151   0.0000
    11 C7         -15.3820     6.6820    24.4570 C.ar         1 FMN151   0.0000
    12 C7M        -14.9910     7.5880    25.5910 C.3          1 FMN151   0.0000
    13 C8         -14.8770     5.3890    24.4220 C.ar         1 FMN151   0.0000
    14 C8M        -14.0270     4.9280    25.5720 C.3          1 FMN151   0.0000
    15 C9         -15.4360     4.4490    23.5650 C.ar         1 FMN151   0.0000
    16 C9A        -16.5030     4.7870    22.7450 C.ar         1 FMN151   0.0000
    17 N10        -17.0590     3.8500    21.8840 N.pl3        1 FMN151   0.0000
    18 C10        -18.1270     4.2100    21.0750 C.2          1 FMN151   0.0000
    19 C1'        -16.4480     2.4760    21.7440 C.3          1 FMN151   0.0000
    20 C2'        -15.2530     2.4100    20.7840 C.3          1 FMN151   0.0000
    21 O2'        -15.5880     2.9530    19.5170 O.3          1 FMN151   0.0000
    22 C3'        -14.7590     0.9600    20.6670 C.3          1 FMN151   0.0000
    23 O3'        -13.6780     0.7680    21.5450 O.3          1 FMN151   0.0000
    24 C4'        -14.3150     0.5260    19.2660 C.3          1 FMN151   0.0000
    25 O4'        -14.2970    -0.8890    19.1780 O.3          1 FMN151   0.0000
    26 C5'        -12.9170     1.0470    18.9460 C.3          1 FMN151   0.0000
    27 O5'        -12.3830     0.4380    17.7990 O.3          1 FMN151   0.0000
    28 P          -10.9530     0.9430    17.2620 P.3          1 FMN151   0.0000
    29 O1P         -9.8370     0.1610    17.9170 O.co2        1 FMN151   0.0000
    30 O2P        -10.8150     2.4020    17.6030 O.co2        1 FMN151  -1.0000
    31 O3P        -10.8720     0.7110    15.7740 O.co2        1 FMN151  -1.0000
    32 H1         -21.0302     5.1742    18.8819 H            1 FMN151   0.0000
    33 H2         -16.8140     7.9563    23.6592 H            1 FMN151   0.0000
    34 H7M1       -14.2109     7.1950    26.0778 H            1 FMN151   0.0000
    35 H7M2       -14.7401     8.4858    25.2291 H            1 FMN151   0.0000
    36 H7M3       -15.7618     7.6859    26.2205 H            1 FMN151   0.0000
    37 H8M1       -13.7351     3.9847    25.4137 H            1 FMN151   0.0000
    38 H8M2       -13.2228     5.5173    25.6493 H            1 FMN151   0.0000
    39 H8M3       -14.5574     4.9752    26.4184 H            1 FMN151   0.0000
    40 H9         -15.0659     3.5204    23.5390 H            1 FMN151   0.0000
    41 H1'1       -17.1539     1.8523    21.4084 H            1 FMN151   0.0000
    42 H1'2       -16.1407     2.1766    22.6473 H            1 FMN151   0.0000
    43 H2'        -14.5129     2.9597    21.1714 H            1 FMN151   0.0000
    44 H13        -15.8597     3.9093    19.6254 H            1 FMN151   0.0000
    45 H3'        -15.5022     0.3565    20.9560 H            1 FMN151   0.0000
    46 H15        -13.7806     1.3702    22.3368 H            1 FMN151   0.0000
    47 H4'        -14.9601     0.8869    18.5925 H            1 FMN151   0.0000
    48 H17        -14.4938    -1.1670    18.2378 H            1 FMN151   0.0000
    49 H5'1       -12.3157     0.8581    19.7224 H            1 FMN151   0.0000
    50 H5'2       -12.9663     2.0343    18.7950 H            1 FMN151   0.0000
@<TRIPOS>BOND
     1    1    2       1
     2    1   18       2
     3    2    3       2
     4    2    4       1
     5    4    5       1
     6    5    6       2
     7    5    7       1
     8    7    8       2
     9    7   18       1
    10    8    9       1
    11    9   10      ar
    12    9   16      ar
    13   10   11      ar
    14   11   12       1
    15   11   13      ar
    16   13   14       1
    17   13   15      ar
    18   15   16      ar
    19   16   17       1
    20   17   18       1
    21   17   19       1
    22   19   20       1
    23   20   21       1
    24   20   22       1
    25   22   23       1
    26   22   24       1
    27   24   25       1
    28   24   26       1
    29   26   27       1
    30   27   28       1
    31   28   29      ar
    32   28   30      ar
    33   28   31      ar
    34    4   32       1
    35   10   33       1
    36   12   34       1
    37   12   35       1
    38   12   36       1
    39   14   37       1
    40   14   38       1
    41   14   39       1
    42   15   40       1
    43   19   41       1
    44   19   42       1
    45   20   43       1
    46   21   44       1
    47   22   45       1
    48   23   46       1
    49   24   47       1
    50   25   48       1
    51   26   49       1
    52   26   50       1
@<TRIPOS>SUBSTRUCTURE
     1 FMN151      1 GROUP             4 C     FMN     0 **** FMN C 151
