@<TRIPOS>MOLECULE
2ewv_ADP_1_ligand
   39    41     1     0     0
SMALL
NO_CHARGES


@<TRIPOS>ATOM
     1 PB          -4.9310    38.6290     8.7030 P.3          1 ADP500   0.0000
     2 O1B         -3.9280    37.5390     8.6850 O.co2        1 ADP500   0.0000
     3 O2B         -5.2790    39.0540     7.1750 O.co2        1 ADP500  -1.0000
     4 O3B         -6.2330    38.0660     9.4430 O.co2        1 ADP500  -1.0000
     5 PA          -5.4960    40.9570    10.0490 P.3          1 ADP500   0.0000
     6 O1A         -6.7960    40.7420     9.3860 O.co2        1 ADP500   0.0000
     7 O2A         -5.6620    40.7890    11.6570 O.co2        1 ADP500  -1.0000
     8 O3A         -4.3370    39.9180     9.5150 O.3          1 ADP500   0.0000
     9 O5'         -5.0260    42.4720     9.7280 O.3          1 ADP500   0.0000
    10 C5'         -3.8000    42.7350    10.4530 C.3          1 ADP500   0.0000
    11 C4'         -3.5800    44.2510    10.6380 C.3          1 ADP500   0.0000
    12 O4'         -4.0110    45.0000     9.4510 O.3          1 ADP500   0.0000
    13 C3'         -4.3880    44.7710    11.8450 C.3          1 ADP500   0.0000
    14 O3'         -3.5920    45.6530    12.6320 O.3          1 ADP500   0.0000
    15 C2'         -5.5940    45.4780    11.1840 C.3          1 ADP500   0.0000
    16 O2'         -6.1260    46.5460    11.9750 O.3          1 ADP500   0.0000
    17 C1'         -5.0580    45.9490     9.8210 C.3          1 ADP500   0.0000
    18 N9          -6.1430    45.9320     8.8000 N.pl3        1 ADP500   0.0000
    19 C8          -6.9890    44.8780     8.5210 C.2          1 ADP500   0.0000
    20 N7          -7.8310    45.1930     7.5730 N.2          1 ADP500   0.0000
    21 C5          -7.5890    46.4670     7.1660 C.ar         1 ADP500   0.0000
    22 C6          -8.1710    47.3450     6.1990 C.ar         1 ADP500   0.0000
    23 N6          -9.2270    46.9240     5.4110 N.pl3        1 ADP500   0.0000
    24 N1          -7.6550    48.5970     6.0630 N.ar         1 ADP500   0.0000
    25 C2          -6.6340    49.0240     6.8140 C.ar         1 ADP500   0.0000
    26 N3          -6.0590    48.2310     7.7420 N.ar         1 ADP500   0.0000
    27 C4          -6.5030    46.9680     7.9560 C.ar         1 ADP500   0.0000
    28 H5'1        -3.0299    42.3529     9.9422 H            1 ADP500   0.0000
    29 H5'2        -3.8523    42.3002    11.3520 H            1 ADP500   0.0000
    30 H4'         -2.6079    44.4228    10.7974 H            1 ADP500   0.0000
    31 H3'         -4.7037    44.0035    12.4030 H            1 ADP500   0.0000
    32 H5          -4.1281    45.9816    13.4096 H            1 ADP500   0.0000
    33 H2'         -6.3157    44.8034    11.0290 H            1 ADP500   0.0000
    34 H7          -5.4171    47.2353    12.1243 H            1 ADP500   0.0000
    35 H1'         -4.6754    46.8694     9.9012 H            1 ADP500   0.0000
    36 H9          -6.9613    43.9915     8.9828 H            1 ADP500   0.0000
    37 H10         -9.6272    47.5455     4.7375 H            1 ADP500   0.0000
    38 H11         -9.5902    45.9981     5.5148 H            1 ADP500   0.0000
    39 H12         -6.2884    49.9534     6.6846 H            1 ADP500   0.0000
@<TRIPOS>BOND
     1    1    2      ar
     2    1    3      ar
     3    1    4      ar
     4    1    8       1
     5    5    6      ar
     6    5    7      ar
     7    5    8       1
     8    5    9       1
     9    9   10       1
    10   10   11       1
    11   11   12       1
    12   11   13       1
    13   12   17       1
    14   13   14       1
    15   13   15       1
    16   15   16       1
    17   15   17       1
    18   17   18       1
    19   18   19       1
    20   18   27       1
    21   19   20       2
    22   20   21       1
    23   21   22      ar
    24   21   27      ar
    25   22   23       1
    26   22   24      ar
    27   24   25      ar
    28   25   26      ar
    29   26   27      ar
    30   25   39       1
    31   23   38       1
    32   23   37       1
    33   10   28       1
    34   10   29       1
    35   11   30       1
    36   13   31       1
    37   14   32       1
    38   15   33       1
    39   16   34       1
    40   17   35       1
    41   19   36       1
@<TRIPOS>SUBSTRUCTURE
     1 ADP500      1 GROUP             4 A     ADP     0 **** ADP A 500
