@<TRIPOS>MOLECULE
4h4q_FAD_1_ligand
   82    87     1     0     0
SMALL
NO_CHARGES


@<TRIPOS>ATOM
     1 PA         -36.3920   -12.6950    -8.8120 P.3          1 FAD506   0.0000
     2 O1A        -35.8010   -13.6350    -7.7650 O.co2        1 FAD506   0.0000
     3 O2A        -35.3530   -11.8150    -9.3790 O.co2        1 FAD506  -1.0000
     4 O5B        -37.5570   -11.8230    -8.2070 O.3          1 FAD506   0.0000
     5 C5B        -38.4020   -12.3640    -7.2370 C.3          1 FAD506   0.0000
     6 C4B        -38.6450   -11.4960    -6.0900 C.3          1 FAD506   0.0000
     7 O4B        -39.7920   -11.9030    -5.3910 O.3          1 FAD506   0.0000
     8 C3B        -37.5120   -11.6080    -5.1380 C.3          1 FAD506   0.0000
     9 O3B        -37.1490   -10.3060    -4.7080 O.3          1 FAD506   0.0000
    10 C2B        -38.0480   -12.3410    -4.0720 C.3          1 FAD506   0.0000
    11 O2B        -37.3980   -12.0370    -2.8330 O.3          1 FAD506   0.0000
    12 C1B        -39.4400   -11.8930    -4.0450 C.3          1 FAD506   0.0000
    13 N9A        -40.3510   -12.7300    -3.2320 N.pl3        1 FAD506   0.0000
    14 C8A        -40.2400   -14.0540    -3.0230 C.2          1 FAD506   0.0000
    15 N7A        -41.2620   -14.4580    -2.2370 N.2          1 FAD506   0.0000
    16 C5A        -42.0210   -13.3910    -1.9270 C.ar         1 FAD506   0.0000
    17 C6A        -43.1790   -13.2020    -1.1720 C.ar         1 FAD506   0.0000
    18 N6A        -43.8310   -14.3490    -0.4870 N.pl3        1 FAD506   0.0000
    19 N1A        -43.6950   -11.9750    -1.0800 N.ar         1 FAD506   0.0000
    20 C2A        -43.1170   -10.9280    -1.7040 C.ar         1 FAD506   0.0000
    21 N3A        -42.0060   -11.0770    -2.4280 N.ar         1 FAD506   0.0000
    22 C4A        -41.4520   -12.2870    -2.5750 C.ar         1 FAD506   0.0000
    23 N1         -28.9500   -14.0820   -15.7470 N.2          1 FAD506   0.0000
    24 C2         -28.4070   -14.2930   -16.9560 C.2          1 FAD506   0.0000
    25 O2         -29.2040   -14.7770   -17.9930 O.2          1 FAD506   0.0000
    26 N3         -27.1110   -14.0120   -17.1870 N.pl3        1 FAD506   0.0000
    27 C4         -26.3150   -13.6170   -16.1710 C.2          1 FAD506   0.0000
    28 O4         -24.9300   -13.4820   -16.3740 O.2          1 FAD506   0.0000
    29 C4X        -26.8290   -13.3610   -14.8920 C.2          1 FAD506   0.0000
    30 N5         -26.1030   -12.8680   -13.8550 N.2          1 FAD506   0.0000
    31 C5X        -26.6530   -12.9200   -12.5890 C.ar         1 FAD506   0.0000
    32 C6         -25.8740   -12.6770   -11.4460 C.ar         1 FAD506   0.0000
    33 C7         -26.4440   -12.7380   -10.1690 C.ar         1 FAD506   0.0000
    34 C7M        -25.5860   -12.4900    -8.9960 C.3          1 FAD506   0.0000
    35 C8         -27.8020   -13.0480   -10.0180 C.ar         1 FAD506   0.0000
    36 C8M        -28.4570   -13.1300    -8.6790 C.3          1 FAD506   0.0000
    37 C9         -28.5740   -13.2780   -11.1460 C.ar         1 FAD506   0.0000
    38 C9A        -27.9930   -13.2160   -12.4270 C.ar         1 FAD506   0.0000
    39 N10        -28.7500   -13.4210   -13.5290 N.pl3        1 FAD506   0.0000
    40 C10        -28.1720   -13.6770   -14.7170 C.2          1 FAD506   0.0000
    41 C1'        -29.9660   -12.6600   -13.6140 C.3          1 FAD506   0.0000
    42 C2'        -31.2460   -13.5040   -13.5840 C.2          1 FAD506   0.0000
    43 O2'        -31.3590   -14.4160   -14.4290 O.2          1 FAD506   0.0000
    44 C3'        -32.4720   -12.7440   -13.1510 C.3          1 FAD506   0.0000
    45 O3'        -32.1520   -12.0150   -12.0400 O.3          1 FAD506   0.0000
    46 C4'        -33.6410   -13.6710   -12.8390 C.3          1 FAD506   0.0000
    47 O4'        -33.7990   -14.6480   -13.8530 O.3          1 FAD506   0.0000
    48 C5'        -34.9340   -12.8610   -12.6030 C.3          1 FAD506   0.0000
    49 O5'        -36.0950   -13.6500   -12.3130 O.3          1 FAD506   0.0000
    50 P          -37.3260   -13.2850   -11.3880 P.3          1 FAD506   0.0000
    51 O1P        -37.8790   -11.8940   -11.5960 O.co2        1 FAD506   0.0000
    52 O2P        -38.3920   -14.3140   -11.8210 O.co2        1 FAD506  -1.0000
    53 O3P        -36.9930   -13.6220    -9.9370 O.3          1 FAD506   0.0000
    54 H5B1       -37.9914   -13.2129    -6.9042 H            1 FAD506   0.0000
    55 H5B2       -39.2818   -12.5657    -7.6673 H            1 FAD506   0.0000
    56 H4B        -38.7462   -10.5483    -6.3926 H            1 FAD506   0.0000
    57 H3B        -36.7356   -12.0835    -5.5517 H            1 FAD506   0.0000
    58 H5         -36.3855   -10.3680    -4.0652 H            1 FAD506   0.0000
    59 H2B        -37.9993   -13.3216    -4.2617 H            1 FAD506   0.0000
    60 H7         -37.8714   -11.2782    -2.3856 H            1 FAD506   0.0000
    61 H1B        -39.4730   -10.9525    -3.7067 H            1 FAD506   0.0000
    62 H8A        -39.5194   -14.6427    -3.3892 H            1 FAD506   0.0000
    63 H6A1       -44.6607   -14.2036     0.0519 H            1 FAD506   0.0000
    64 H6A2       -43.4399   -15.2660    -0.5651 H            1 FAD506   0.0000
    65 H2A        -43.5299   -10.0209    -1.6223 H            1 FAD506   0.0000
    66 H13        -26.7380   -14.0959   -18.1111 H            1 FAD506   0.0000
    67 H14        -24.9033   -12.4584   -11.5453 H            1 FAD506   0.0000
    68 H7M1       -26.1315   -12.5679    -8.1615 H            1 FAD506   0.0000
    69 H7M2       -24.8470   -13.1634    -8.9752 H            1 FAD506   0.0000
    70 H7M3       -25.1975   -11.5705    -9.0556 H            1 FAD506   0.0000
    71 H8M1       -29.4228   -13.3623    -8.7940 H            1 FAD506   0.0000
    72 H8M2       -28.0075   -13.8352    -8.1307 H            1 FAD506   0.0000
    73 H8M3       -28.3794   -12.2474    -8.2154 H            1 FAD506   0.0000
    74 H21        -29.5468   -13.4887   -11.0497 H            1 FAD506   0.0000
    75 H1'1       -29.9522   -12.1433   -14.4701 H            1 FAD506   0.0000
    76 H1'2       -29.9920   -12.0251   -12.8419 H            1 FAD506   0.0000
    77 H3'        -32.7409   -12.1181   -13.8831 H            1 FAD506   0.0000
    78 H25        -32.2934   -11.0429   -12.2270 H            1 FAD506   0.0000
    79 H4'        -33.4265   -14.1511   -11.9884 H            1 FAD506   0.0000
    80 H27        -34.5704   -15.2425   -13.6258 H            1 FAD506   0.0000
    81 H5'1       -35.1200   -12.3255   -13.4268 H            1 FAD506   0.0000
    82 H5'2       -34.7775   -12.2434   -11.8322 H            1 FAD506   0.0000
@<TRIPOS>BOND
     1    1    2      ar
     2    1    3      ar
     3    1    4       1
     4    1   53       1
     5    4    5       1
     6    5    6       1
     7    6    7       1
     8    6    8       1
     9    7   12       1
    10    8    9       1
    11    8   10       1
    12   10   11       1
    13   10   12       1
    14   12   13       1
    15   13   14       1
    16   13   22       1
    17   14   15       2
    18   15   16       1
    19   16   17      ar
    20   16   22      ar
    21   17   18       1
    22   17   19      ar
    23   19   20      ar
    24   20   21      ar
    25   21   22      ar
    26   23   24       1
    27   23   40       2
    28   24   25       2
    29   24   26       1
    30   26   27       1
    31   27   28       2
    32   27   29       1
    33   29   30       2
    34   29   40       1
    35   30   31       1
    36   31   32      ar
    37   31   38      ar
    38   32   33      ar
    39   33   34       1
    40   33   35      ar
    41   35   36       1
    42   35   37      ar
    43   37   38      ar
    44   38   39       1
    45   39   40       1
    46   39   41       1
    47   41   42       1
    48   42   43       2
    49   42   44       1
    50   44   45       1
    51   44   46       1
    52   46   47       1
    53   46   48       1
    54   48   49       1
    55   49   50       1
    56   50   51      ar
    57   50   52      ar
    58   50   53       1
    59   48   82       1
    60    5   54       1
    61    5   55       1
    62    6   56       1
    63    8   57       1
    64    9   58       1
    65   10   59       1
    66   11   60       1
    67   12   61       1
    68   14   62       1
    69   18   63       1
    70   18   64       1
    71   20   65       1
    72   26   66       1
    73   32   67       1
    74   34   68       1
    75   34   69       1
    76   34   70       1
    77   36   71       1
    78   36   72       1
    79   36   73       1
    80   37   74       1
    81   41   75       1
    82   41   76       1
    83   44   77       1
    84   45   78       1
    85   46   79       1
    86   47   80       1
    87   48   81       1
@<TRIPOS>SUBSTRUCTURE
     1 FAD506      1 GROUP             4 A     FAD     0 **** FAD A 506
