@<TRIPOS>MOLECULE
3u10_CMP_1_ligand
   34    37     1     0     0
SMALL
NO_CHARGES


@<TRIPOS>ATOM
     1 P           -7.2770   -23.1400    -7.4720 P.3          1 CMP701   0.0000
     2 O1P         -7.9230   -23.0200    -6.0810 O.2          1 CMP701   0.0000
     3 O2P         -6.6670   -24.4770    -7.6230 O.3          1 CMP701   0.0000
     4 O5'         -8.3270   -22.8030    -8.6170 O.3          1 CMP701   0.0000
     5 C5'         -8.9090   -21.5190    -8.7910 C.3          1 CMP701   0.0000
     6 C4'         -7.7440   -20.5820    -8.8650 C.3          1 CMP701   0.0000
     7 O4'         -8.1070   -19.2240    -8.8560 O.3          1 CMP701   0.0000
     8 C3'         -6.8420   -20.6900    -7.6540 C.3          1 CMP701   0.0000
     9 O3'         -6.2370   -21.9340    -7.5680 O.3          1 CMP701   0.0000
    10 C2'         -5.8980   -19.5640    -7.9220 C.3          1 CMP701   0.0000
    11 O2'         -4.7130   -19.9300    -8.6620 O.3          1 CMP701   0.0000
    12 C1'         -6.8280   -18.5710    -8.6370 C.3          1 CMP701   0.0000
    13 N9          -6.9720   -17.4850    -7.6490 N.pl3        1 CMP701   0.0000
    14 C8          -7.5970   -17.6290    -6.4530 C.2          1 CMP701   0.0000
    15 N7          -7.5580   -16.4690    -5.7530 N.2          1 CMP701   0.0000
    16 C5          -6.9000   -15.5550    -6.5060 C.ar         1 CMP701   0.0000
    17 C6          -6.5300   -14.1350    -6.3500 C.ar         1 CMP701   0.0000
    18 N6          -6.8380   -13.4320    -5.2140 N.pl3        1 CMP701   0.0000
    19 N1          -5.8860   -13.5600    -7.4070 N.ar         1 CMP701   0.0000
    20 C2          -5.5600   -14.2340    -8.5480 C.ar         1 CMP701   0.0000
    21 N3          -5.8590   -15.5400    -8.7220 N.ar         1 CMP701   0.0000
    22 C4          -6.5190   -16.2320    -7.7600 C.ar         1 CMP701   0.0000
    23 H5'1        -9.4972   -21.2901    -8.0153 H            1 CMP701   0.0000
    24 H5'2        -9.4432   -21.4853    -9.6357 H            1 CMP701   0.0000
    25 H4'         -7.2143   -20.7773    -9.6904 H            1 CMP701   0.0000
    26 H3'         -7.3648   -20.5064    -6.8215 H            1 CMP701   0.0000
    27 H2'         -5.6185   -19.1669    -7.0478 H            1 CMP701   0.0000
    28 H6          -3.9911   -20.1979    -8.0240 H            1 CMP701   0.0000
    29 H1'         -6.4295   -18.2417    -9.4930 H            1 CMP701   0.0000
    30 H8          -8.0265   -18.4734    -6.1328 H            1 CMP701   0.0000
    31 H9          -6.5753   -12.4704    -5.1344 H            1 CMP701   0.0000
    32 H10         -7.3253   -13.8808    -4.4650 H            1 CMP701   0.0000
    33 H11         -5.0842   -13.7452    -9.2792 H            1 CMP701   0.0000
    34 H2P         -5.6861   -24.3788    -7.7909 H            1 CMP701   0.0000
@<TRIPOS>BOND
     1    1    2       2
     2    1    3       1
     3    1    4       1
     4    1    9       1
     5    4    5       1
     6    5    6       1
     7    6    7       1
     8    6    8       1
     9    7   12       1
    10    8    9       1
    11    8   10       1
    12   10   11       1
    13   10   12       1
    14   12   13       1
    15   13   14       1
    16   13   22       1
    17   14   15       2
    18   15   16       1
    19   16   17      ar
    20   16   22      ar
    21   17   18       1
    22   17   19      ar
    23   19   20      ar
    24   20   21      ar
    25   21   22      ar
    26   20   33       1
    27    5   23       1
    28    5   24       1
    29    6   25       1
    30    8   26       1
    31   10   27       1
    32   11   28       1
    33   12   29       1
    34   14   30       1
    35   18   31       1
    36   18   32       1
    37    3   34       1
@<TRIPOS>SUBSTRUCTURE
     1 CMP701      1 GROUP             4 A     CMP     0 **** CMP A 701
