@<TRIPOS>MOLECULE
2cf6_NAP_1_ligand
   73    77     1     0     0
SMALL
NO_CHARGES


@<TRIPOS>ATOM
     1 PA          49.6230    32.9960    87.3780 P.3          1 NAP450   0.0000
     2 O1A         48.4220    32.1280    87.3870 O.co2        1 NAP450   0.0000
     3 O2A         49.7900    34.0050    86.3080 O.co2        1 NAP450  -1.0000
     4 O5B         50.9010    31.9800    87.3230 O.3          1 NAP450   0.0000
     5 C5B         51.1110    31.0830    86.1750 C.3          1 NAP450   0.0000
     6 C4B         50.5640    31.4320    84.7650 C.3          1 NAP450   0.0000
     7 O4B         51.5280    31.8220    83.7500 O.3          1 NAP450   0.0000
     8 C3B         49.7720    30.2790    84.1500 C.3          1 NAP450   0.0000
     9 O3B         48.4210    30.7010    83.9540 O.3          1 NAP450   0.0000
    10 C2B         50.4280    29.8670    82.8280 C.3          1 NAP450   0.0000
    11 O2B         49.4320    29.6960    81.7500 O.3          1 NAP450   0.0000
    12 C1B         51.4460    30.9810    82.5820 C.3          1 NAP450   0.0000
    13 N9A         52.7800    30.4270    82.2270 N.pl3        1 NAP450   0.0000
    14 C8A         53.6490    29.8110    83.0490 C.2          1 NAP450   0.0000
    15 N7A         54.7830    29.4950    82.4120 N.2          1 NAP450   0.0000
    16 C5A         54.5800    29.9340    81.1810 C.ar         1 NAP450   0.0000
    17 C6A         55.4870    29.8320    80.1320 C.ar         1 NAP450   0.0000
    18 N6A         56.6960    29.3030    80.2870 N.pl3        1 NAP450   0.0000
    19 N1A         55.0800    30.3390    78.9470 N.ar         1 NAP450   0.0000
    20 C2A         53.8770    30.9010    78.7970 C.ar         1 NAP450   0.0000
    21 N3A         53.0170    30.9980    79.8120 N.ar         1 NAP450   0.0000
    22 C4A         53.3480    30.5180    81.0280 C.ar         1 NAP450   0.0000
    23 O3          49.6430    33.7900    88.7980 O.3          1 NAP450   0.0000
    24 PN          49.9840    35.2510    89.4760 P.3          1 NAP450   0.0000
    25 O1N         50.7460    34.9920    90.7210 O.co2        1 NAP450   0.0000
    26 O2N         48.6980    35.9660    89.6300 O.co2        1 NAP450  -1.0000
    27 O5D         50.9260    36.1630    88.4930 O.3          1 NAP450   0.0000
    28 C5D         52.2070    35.7280    87.9550 C.3          1 NAP450   0.0000
    29 C4D         53.5760    36.1460    88.5330 C.3          1 NAP450   0.0000
    30 O4D         53.8990    37.5620    88.5480 O.3          1 NAP450   0.0000
    31 C3D         53.8170    35.6810    89.9590 C.3          1 NAP450   0.0000
    32 O3D         55.1510    35.1940    90.1690 O.3          1 NAP450   0.0000
    33 C2D         53.4990    36.9060    90.7950 C.3          1 NAP450   0.0000
    34 O2D         54.1490    36.8720    92.0730 O.3          1 NAP450   0.0000
    35 C1D         53.9320    38.0620    89.8990 C.3          1 NAP450   0.0000
    36 N1N         53.0500    39.2580    89.9920 N.ar         1 NAP450   1.0000
    37 C2N         53.5000    40.5100    89.5220 C.ar         1 NAP450   0.0000
    38 C3N         52.6720    41.6330    89.6100 C.ar         1 NAP450   0.0000
    39 C7N         53.1210    43.0200    89.1140 C.2          1 NAP450   0.0000
    40 O7N         52.3872    44.0037    89.1942 O.2          1 NAP450   0.0000
    41 N7N         54.3458    43.0787    88.5961 N.am         1 NAP450   0.0000
    42 C4N         51.4010    41.4860    90.1660 C.ar         1 NAP450   0.0000
    43 C5N         50.9380    40.2590    90.6290 C.ar         1 NAP450   0.0000
    44 C6N         51.7590    39.1410    90.5410 C.ar         1 NAP450   0.0000
    45 P2B         49.6220    28.7180    80.3780 P.3          1 NAP450   0.0000
    46 O1X         48.2600    28.7690    79.8020 O.co2        1 NAP450   0.0000
    47 O2X         50.6030    29.1440    79.3500 O.co2        1 NAP450  -1.0000
    48 O3X         49.8930    27.3450    80.8840 O.co2        1 NAP450  -1.0000
    49 H5B1        50.7057    30.2038    86.4256 H            1 NAP450   0.0000
    50 H5B2        52.1005    30.9778    86.0760 H            1 NAP450   0.0000
    51 H4B         49.9298    32.1970    84.8771 H            1 NAP450   0.0000
    52 H3B         49.7844    29.5011    84.7783 H            1 NAP450   0.0000
    53 H5          48.3273    31.1077    83.0452 H            1 NAP450   0.0000
    54 H2B         50.9153    29.0040    82.9612 H            1 NAP450   0.0000
    55 H1B         51.1234    31.5376    81.8164 H            1 NAP450   0.0000
    56 H8A         53.4704    29.6143    84.0131 H            1 NAP450   0.0000
    57 H6A1        57.3208    29.2469    79.5083 H            1 NAP450   0.0000
    58 H6A2        56.9811    28.9609    81.1824 H            1 NAP450   0.0000
    59 H2A         53.6146    31.2581    77.9005 H            1 NAP450   0.0000
    60 H5D1        52.2144    36.0252    87.0002 H            1 NAP450   0.0000
    61 H5D2        52.1911    34.7288    87.9929 H            1 NAP450   0.0000
    62 H4D         54.2710    35.7017    87.9677 H            1 NAP450   0.0000
    63 H3D         53.1654    34.9556    90.1809 H            1 NAP450   0.0000
    64 H16         55.2536    34.9026    91.1201 H            1 NAP450   0.0000
    65 H2D         52.5101    36.9561    90.9348 H            1 NAP450   0.0000
    66 H18         53.4605    36.8948    92.7979 H            1 NAP450   0.0000
    67 H1D         54.8688    38.3248    90.1301 H            1 NAP450   0.0000
    68 H2N         54.4139    40.5943    89.1248 H            1 NAP450   0.0000
    69 H7N1        54.7020    43.9473    88.2518 H            1 NAP450   0.0000
    70 H7N2        54.9097    42.2541    88.5513 H            1 NAP450   0.0000
    71 H4N         50.8053    42.2864    90.2336 H            1 NAP450   0.0000
    72 H5N         50.0217    40.1818    91.0221 H            1 NAP450   0.0000
    73 H6N         51.4328    38.2539    90.8675 H            1 NAP450   0.0000
@<TRIPOS>BOND
     1    1    2      ar
     2    1    3      ar
     3    1    4       1
     4    1   23       1
     5    4    5       1
     6    5    6       1
     7    6    7       1
     8    6    8       1
     9    7   12       1
    10    8    9       1
    11    8   10       1
    12   10   11       1
    13   10   12       1
    14   11   45       1
    15   12   13       1
    16   13   14       1
    17   13   22       1
    18   14   15       2
    19   15   16       1
    20   16   17      ar
    21   16   22      ar
    22   17   18       1
    23   17   19      ar
    24   19   20      ar
    25   20   21      ar
    26   21   22      ar
    27   23   24       1
    28   24   25      ar
    29   24   26      ar
    30   24   27       1
    31   27   28       1
    32   28   29       1
    33   29   30       1
    34   29   31       1
    35   30   35       1
    36   31   32       1
    37   31   33       1
    38   33   34       1
    39   33   35       1
    40   35   36       1
    41   36   37      ar
    42   36   44      ar
    43   37   38      ar
    44   38   39       1
    45   38   42      ar
    46   39   40       2
    47   39   41      am
    48   42   43      ar
    49   43   44      ar
    50   45   46      ar
    51   45   47      ar
    52   45   48      ar
    53   43   72       1
    54    5   49       1
    55    5   50       1
    56    6   51       1
    57    8   52       1
    58    9   53       1
    59   10   54       1
    60   12   55       1
    61   14   56       1
    62   18   57       1
    63   18   58       1
    64   20   59       1
    65   44   73       1
    66   28   60       1
    67   28   61       1
    68   29   62       1
    69   31   63       1
    70   32   64       1
    71   33   65       1
    72   34   66       1
    73   35   67       1
    74   37   68       1
    75   41   69       1
    76   41   70       1
    77   42   71       1
@<TRIPOS>SUBSTRUCTURE
     1 NAP450      1 GROUP             4 A     NAP     0 **** NAP A 450
