@<TRIPOS>MOLECULE
3jxe_TYM_1_ligand
   61    65     1     0     0
SMALL
NO_CHARGES


@<TRIPOS>ATOM
     1 P          -38.9950    29.4220    13.7960 P.3          1 TYM400   0.0000
     2 O1P        -39.8820    28.6870    14.7270 O.co2        1 TYM400   0.0000
     3 O2P        -38.2810    30.6280    14.2630 O.co2        1 TYM400  -1.0000
     4 O5'        -39.8540    29.8560    12.4990 O.3          1 TYM400   0.0000
     5 C5'        -40.7210    28.9130    11.8640 C.3          1 TYM400   0.0000
     6 C4'        -40.7270    29.0750    10.3280 C.3          1 TYM400   0.0000
     7 O4'        -41.2620    30.3700     9.9600 O.3          1 TYM400   0.0000
     8 C1'        -40.2640    31.1070     9.1870 C.3          1 TYM400   0.0000
     9 N9         -40.4460    32.5020     9.6680 N.pl3        1 TYM400   0.0000
    10 C4         -40.9980    33.5040     8.9840 C.ar         1 TYM400   0.0000
    11 N3         -41.5050    33.6170     7.7430 N.ar         1 TYM400   0.0000
    12 C2         -41.9970    34.7740     7.3100 C.ar         1 TYM400   0.0000
    13 N1         -42.0060    35.8570     8.0770 N.ar         1 TYM400   0.0000
    14 C6         -41.5160    35.8130     9.3280 C.ar         1 TYM400   0.0000
    15 N6         -41.5300    36.9000    10.0930 N.pl3        1 TYM400   0.0000
    16 C5         -40.9930    34.6170     9.8110 C.ar         1 TYM400   0.0000
    17 N7         -40.4490    34.2500    10.9650 N.2          1 TYM400   0.0000
    18 C8         -40.1210    32.9620    10.8790 C.2          1 TYM400   0.0000
    19 C2'        -38.9240    30.4520     9.5310 C.3          1 TYM400   0.0000
    20 O2'        -38.0250    30.5590     8.4260 O.3          1 TYM400   0.0000
    21 C3'        -39.3200    28.9920     9.7250 C.3          1 TYM400   0.0000
    22 O3'        -39.4100    28.3240     8.4560 O.3          1 TYM400   0.0000
    23 NH3        -34.9860    26.5840    14.3760 N.4          1 TYM400   1.0000
    24 CA         -36.2310    26.6660    13.5990 C.3          1 TYM400   0.0000
    25 CB         -36.9940    25.3480    13.7200 C.3          1 TYM400   0.0000
    26 CG         -36.6870    24.3960    12.5270 C.2          1 TYM400   0.0000
    27 CD2        -36.8620    24.6320    11.1660 C.ar         1 TYM400   0.0000
    28 CE2        -36.4490    23.4850    10.4750 C.ar         1 TYM400   0.0000
    29 CE3        -37.3430    25.7320    10.4570 C.ar         1 TYM400   0.0000
    30 CD1        -36.1860    23.1440    12.6230 C.2          1 TYM400   0.0000
    31 NE1        -36.0340    22.5700    11.3480 N.pl3        1 TYM400   0.0000
    32 CZ2        -36.5180    23.4440     9.0870 C.ar         1 TYM400   0.0000
    33 CZ3        -37.4080    25.6880     9.0630 C.ar         1 TYM400   0.0000
    34 CH2        -36.9970    24.5430     8.3780 C.ar         1 TYM400   0.0000
    35 C          -37.1060    27.8070    14.1270 C.2          1 TYM400   0.0000
    36 O          -37.0460    28.1390    15.3110 O.2          1 TYM400   0.0000
    37 OPP        -37.9150    28.3810    13.1750 O.3          1 TYM400   0.0000
    38 H5'1       -41.6508    29.0479    12.2064 H            1 TYM400   0.0000
    39 H5'2       -40.4134    27.9887    12.0899 H            1 TYM400   0.0000
    40 H4'        -41.2978    28.3591     9.9259 H            1 TYM400   0.0000
    41 H1'        -40.4520    31.0406     8.2071 H            1 TYM400   0.0000
    42 H5         -42.3694    34.8294     6.3836 H            1 TYM400   0.0000
    43 H6         -41.1642    36.8617    11.0229 H            1 TYM400   0.0000
    44 H7         -41.9063    37.7560     9.7386 H            1 TYM400   0.0000
    45 H8         -39.6975    32.4235    11.6074 H            1 TYM400   0.0000
    46 H2'        -38.5293    30.8392    10.3642 H            1 TYM400   0.0000
    47 H10        -37.2113    31.0682     8.7064 H            1 TYM400   0.0000
    48 H3'        -38.6873    28.5216    10.3401 H            1 TYM400   0.0000
    49 H12        -39.5650    28.9987     7.7344 H            1 TYM400   0.0000
    50 HH31       -34.4863    27.4466    14.2970 H            1 TYM400   0.0000
    51 HH32       -35.2034    26.4115    15.3367 H            1 TYM400   0.0000
    52 HA         -36.0113    26.8345    12.6381 H            1 TYM400   0.0000
    53 HB1        -37.9750    25.5413    13.7367 H            1 TYM400   0.0000
    54 HB2        -36.7287    24.8965    14.5719 H            1 TYM400   0.0000
    55 HE3        -37.6411    26.5515    10.9464 H            1 TYM400   0.0000
    56 HD1        -35.9551    22.6884    13.4827 H            1 TYM400   0.0000
    57 HE1        -35.6840    21.6568    11.1391 H            1 TYM400   0.0000
    58 HZ2        -36.2231    22.6238     8.5967 H            1 TYM400   0.0000
    59 HZ3        -37.7496    26.4782     8.5542 H            1 TYM400   0.0000
    60 HH2        -37.0465    24.5120     7.3797 H            1 TYM400   0.0000
    61 HH33       -34.4212    25.8381    14.0229 H            1 TYM400   0.0000
@<TRIPOS>BOND
     1    1    2      ar
     2    1    3      ar
     3    1    4       1
     4    1   37       1
     5    4    5       1
     6    5    6       1
     7    6    7       1
     8    6   21       1
     9    7    8       1
    10    8    9       1
    11    8   19       1
    12    9   10       1
    13    9   18       1
    14   10   11      ar
    15   10   16      ar
    16   11   12      ar
    17   12   13      ar
    18   13   14      ar
    19   14   15       1
    20   14   16      ar
    21   16   17       1
    22   17   18       2
    23   19   20       1
    24   19   21       1
    25   21   22       1
    26   23   24       1
    27   24   25       1
    28   24   35       1
    29   25   26       1
    30   26   27       1
    31   26   30       2
    32   27   28      ar
    33   27   29      ar
    34   28   31       1
    35   28   32      ar
    36   29   33      ar
    37   30   31       1
    38   32   34      ar
    39   33   34      ar
    40   35   36       2
    41   35   37       1
    42   34   60       1
    43    5   38       1
    44    5   39       1
    45    6   40       1
    46    8   41       1
    47   12   42       1
    48   15   43       1
    49   15   44       1
    50   18   45       1
    51   19   46       1
    52   20   47       1
    53   21   48       1
    54   22   49       1
    55   23   50       1
    56   23   51       1
    57   24   52       1
    58   25   53       1
    59   25   54       1
    60   29   55       1
    61   30   56       1
    62   31   57       1
    63   32   58       1
    64   33   59       1
    65   23   61       1
@<TRIPOS>SUBSTRUCTURE
     1 TYM400      1 GROUP             4 A     TYM     0 **** TYM A 400
