@<TRIPOS>MOLECULE
5da9_AGS_2_ligand
   43    45     1     0     0
SMALL
NO_CHARGES


@<TRIPOS>ATOM
     1 PG         -36.9990   -20.4040   -35.5530 P.3          1 AGS1402   0.0000
     2 S1G        -37.1770   -21.6970   -34.1060 S.2          1 AGS1402   0.0000
     3 O2G        -36.4350   -21.0840   -36.8360 O.co2        1 AGS1402  -1.0000
     4 O3G        -35.9760   -19.3140   -35.1070 O.co2        1 AGS1402  -1.0000
     5 PB         -38.8640   -18.4400   -35.0750 P.3          1 AGS1402   0.0000
     6 O1B        -37.6470   -17.6310   -34.6270 O.co2        1 AGS1402   0.0000
     7 O2B        -39.7250   -18.8870   -33.9600 O.co2        1 AGS1402  -1.0000
     8 O3B        -38.3510   -19.7040   -35.8860 O.3          1 AGS1402   0.0000
     9 PA         -39.3000   -15.9590   -36.2490 P.3          1 AGS1402   0.0000
    10 O1A        -37.9090   -15.9290   -36.8970 O.co2        1 AGS1402   0.0000
    11 O2A        -39.4140   -15.1580   -34.9960 O.co2        1 AGS1402  -1.0000
    12 O3A        -39.6940   -17.4850   -36.0140 O.3          1 AGS1402   0.0000
    13 O5'        -40.3880   -15.4360   -37.2840 O.3          1 AGS1402   0.0000
    14 C5'        -40.1020   -15.5070   -38.6990 C.3          1 AGS1402   0.0000
    15 C4'        -41.3010   -16.0860   -39.4030 C.3          1 AGS1402   0.0000
    16 O4'        -42.2280   -15.0260   -39.6930 O.3          1 AGS1402   0.0000
    17 C3'        -41.0110   -16.8180   -40.7130 C.3          1 AGS1402   0.0000
    18 O3'        -41.6080   -18.1120   -40.7580 O.3          1 AGS1402   0.0000
    19 C2'        -41.5420   -15.8870   -41.8160 C.3          1 AGS1402   0.0000
    20 O2'        -42.4310   -16.5950   -42.6740 O.3          1 AGS1402   0.0000
    21 C1'        -42.3370   -14.8000   -41.0820 C.3          1 AGS1402   0.0000
    22 N9         -41.9230   -13.4300   -41.3830 N.pl3        1 AGS1402   0.0000
    23 C8         -40.7440   -12.8190   -41.0400 C.2          1 AGS1402   0.0000
    24 N7         -40.6390   -11.5760   -41.4490 N.2          1 AGS1402   0.0000
    25 C5         -41.8420   -11.3510   -42.1090 C.ar         1 AGS1402   0.0000
    26 C6         -42.3580   -10.2190   -42.7740 C.ar         1 AGS1402   0.0000
    27 N6         -41.7090    -9.0590   -42.8870 N.pl3        1 AGS1402   0.0000
    28 N1         -43.5900   -10.3270   -43.3290 N.ar         1 AGS1402   0.0000
    29 C2         -44.2440   -11.4860   -43.2190 C.ar         1 AGS1402   0.0000
    30 N3         -43.8580   -12.6150   -42.6190 N.ar         1 AGS1402   0.0000
    31 C4         -42.6370   -12.4820   -42.0790 C.ar         1 AGS1402   0.0000
    32 H5'1       -39.3059   -16.0922   -38.8529 H            1 AGS1402   0.0000
    33 H5'2       -39.9147   -14.5900   -39.0513 H            1 AGS1402   0.0000
    34 H4'        -41.7476   -16.7282   -38.7800 H            1 AGS1402   0.0000
    35 H3'        -40.0212   -16.9139   -40.8185 H            1 AGS1402   0.0000
    36 H5         -42.1045   -18.2798   -39.9063 H            1 AGS1402   0.0000
    37 H2'        -40.7883   -15.4863   -42.3369 H            1 AGS1402   0.0000
    38 H7         -42.5096   -17.5425   -42.3639 H            1 AGS1402   0.0000
    39 H1'        -43.2994   -14.8954   -41.3365 H            1 AGS1402   0.0000
    40 H9         -40.0246   -13.2816   -40.5218 H            1 AGS1402   0.0000
    41 H10        -42.1327    -8.2943   -43.3725 H            1 AGS1402   0.0000
    42 H11        -40.7988    -8.9542   -42.4862 H            1 AGS1402   0.0000
    43 H12        -45.1483   -11.5122   -43.6450 H            1 AGS1402   0.0000
@<TRIPOS>BOND
     1    1    2       2
     2    1    3      ar
     3    1    4      ar
     4    1    8       1
     5    5    6      ar
     6    5    7      ar
     7    5    8       1
     8    5   12       1
     9    9   10      ar
    10    9   11      ar
    11    9   12       1
    12    9   13       1
    13   13   14       1
    14   14   15       1
    15   15   16       1
    16   15   17       1
    17   16   21       1
    18   17   18       1
    19   17   19       1
    20   19   20       1
    21   19   21       1
    22   21   22       1
    23   22   23       1
    24   22   31       1
    25   23   24       2
    26   24   25       1
    27   25   26      ar
    28   25   31      ar
    29   26   27       1
    30   26   28      ar
    31   28   29      ar
    32   29   30      ar
    33   30   31      ar
    34   29   43       1
    35   27   42       1
    36   27   41       1
    37   23   40       1
    38   14   32       1
    39   14   33       1
    40   15   34       1
    41   17   35       1
    42   18   36       1
    43   19   37       1
    44   20   38       1
    45   21   39       1
@<TRIPOS>SUBSTRUCTURE
     1 AGS1402     1 GROUP             4 B     AGS     0 **** AGS B1402
