@<TRIPOS>MOLECULE
3k3g_MMU_2_ligand
   14    13     1     0     0
SMALL
NO_CHARGES


@<TRIPOS>ATOM
     1 N1          50.3230   -11.6830    -7.5310 N.am         1 MMU348   0.0000
     2 N2          49.5870   -12.3450    -5.4900 N.am         1 MMU348   0.0000
     3 CAA         50.7430   -11.9850    -8.9130 C.3          1 MMU348   0.0000
     4 CAB         49.1460   -13.3250    -4.4970 C.3          1 MMU348   0.0000
     5 OAC         49.9480   -13.8730    -7.1370 O.2          1 MMU348   0.0000
     6 CAF         49.9480   -12.7020    -6.7350 C.2          1 MMU348   0.0000
     7 H1          50.3170   -10.7419    -7.1930 H            1 MMU348   0.0000
     8 H2          49.6210   -11.3788    -5.2345 H            1 MMU348   0.0000
     9 HAA1        50.9908   -11.1357    -9.3792 H            1 MMU348   0.0000
    10 HAA2        51.5329   -12.5980    -8.8949 H            1 MMU348   0.0000
    11 HAA3        49.9900   -12.4259    -9.4014 H            1 MMU348   0.0000
    12 HAB1        48.9250   -12.8565    -3.6416 H            1 MMU348   0.0000
    13 HAB2        48.3343   -13.8008    -4.8358 H            1 MMU348   0.0000
    14 HAB3        49.8773   -13.9875    -4.3349 H            1 MMU348   0.0000
@<TRIPOS>BOND
     1    1    3       1
     2    1    6      am
     3    2    4       1
     4    2    6      am
     5    5    6       2
     6    1    7       1
     7    2    8       1
     8    3    9       1
     9    3   10       1
    10    3   11       1
    11    4   12       1
    12    4   13       1
    13    4   14       1
@<TRIPOS>SUBSTRUCTURE
     1 MMU348      1 GROUP             4 A     MMU     0 **** MMU A 348
