@<TRIPOS>MOLECULE
1yet_GDM_1_ligand
   80    81     1     0     0
SMALL
NO_CHARGES


@<TRIPOS>ATOM
     1 O1          38.4350   -50.9890    68.1470 O.2          1 GDM275   0.0000
     2 O2          37.5890   -47.3870    62.6380 O.3          1 GDM275   0.0000
     3 O3          37.9680   -44.7170    63.2480 O.3          1 GDM275   0.0000
     4 O4          38.9370   -43.2560    61.7630 O.2          1 GDM275   0.0000
     5 O5          44.9430   -43.4780    64.4210 O.3          1 GDM275   0.0000
     6 O6          45.4050   -46.2650    63.7580 O.3          1 GDM275   0.0000
     7 O7          43.2450   -44.8190    68.5200 O.3          1 GDM275   0.0000
     8 O8          40.6420   -44.5160    69.2530 O.2          1 GDM275   0.0000
     9 O9          42.1120   -49.4480    68.1200 O.2          1 GDM275   0.0000
    10 N1          39.5890   -49.1610    68.8170 N.am         1 GDM275   0.0000
    11 N2          36.7290   -43.1860    62.2470 N.am         1 GDM275   0.0000
    12 C1          39.2170   -50.1180    67.8480 C.2          1 GDM275   0.0000
    13 C2          39.8780   -50.0730    66.5040 C.2          1 GDM275   0.0000
    14 C3          39.7130   -48.9800    65.7140 C.2          1 GDM275   0.0000
    15 C4          40.2930   -48.7990    64.3870 C.2          1 GDM275   0.0000
    16 C5          39.8560   -47.9390    63.4440 C.2          1 GDM275   0.0000
    17 C6          38.7090   -46.9950    63.5290 C.3          1 GDM275   0.0000
    18 C7          39.1110   -45.5010    63.1470 C.3          1 GDM275   0.0000
    19 C8          40.2740   -44.8800    64.1120 C.2          1 GDM275   0.0000
    20 C9          41.4060   -44.4320    63.5920 C.2          1 GDM275   0.0000
    21 C10         42.5670   -43.7870    64.2880 C.3          1 GDM275   0.0000
    22 C11         43.9320   -44.3370    63.8430 C.3          1 GDM275   0.0000
    23 C12         44.1430   -45.7890    64.2740 C.3          1 GDM275   0.0000
    24 C13         44.1980   -45.9760    65.7870 C.3          1 GDM275   0.0000
    25 C14         44.3630   -47.4320    66.2830 C.3          1 GDM275   0.0000
    26 C15         44.1620   -47.5820    67.8310 C.3          1 GDM275   0.0000
    27 C16         42.7820   -47.1900    68.2720 C.2          1 GDM275   0.0000
    28 C17         42.3590   -45.9580    68.5760 C.2          1 GDM275   0.0000
    29 C18         40.9730   -45.6670    68.9870 C.2          1 GDM275   0.0000
    30 C19         40.0010   -46.7620    69.0660 C.2          1 GDM275   0.0000
    31 C20         40.3710   -48.0090    68.7820 C.2          1 GDM275   0.0000
    32 C21         41.7830   -48.2910    68.3730 C.2          1 GDM275   0.0000
    33 C22         40.6640   -51.2890    66.1240 C.3          1 GDM275   0.0000
    34 C23         37.8540   -48.5360    61.7580 C.3          1 GDM275   0.0000
    35 C24         37.9700   -43.6720    62.3560 C.2          1 GDM275   0.0000
    36 C25         39.9400   -44.8150    65.6040 C.3          1 GDM275   0.0000
    37 C26         42.4790   -42.2760    63.9780 C.3          1 GDM275   0.0000
    38 C27         45.4000   -46.4540    62.3080 C.3          1 GDM275   0.0000
    39 C28         43.4520   -48.3420    65.5110 C.3          1 GDM275   0.0000
    40 C29         44.6220   -44.8250    68.9240 C.3          1 GDM275   0.0000
    41 H1          45.7738   -44.0082    64.5903 H            1 GDM275   0.0000
    42 H2          39.2097   -49.3510    69.7226 H            1 GDM275   0.0000
    43 H3          36.5454   -42.4163    61.6356 H            1 GDM275   0.0000
    44 H4          35.9846   -43.5923    62.7769 H            1 GDM275   0.0000
    45 H5          39.1468   -48.2374    66.0717 H            1 GDM275   0.0000
    46 H6          41.0856   -49.3632    64.1560 H            1 GDM275   0.0000
    47 H7          40.3648   -47.9355    62.5831 H            1 GDM275   0.0000
    48 H8          38.3732   -46.9964    64.4709 H            1 GDM275   0.0000
    49 H9          39.4326   -45.4842    62.2003 H            1 GDM275   0.0000
    50 H10         41.4994   -44.5380    62.6020 H            1 GDM275   0.0000
    51 H11         42.4692   -43.9217    65.2740 H            1 GDM275   0.0000
    52 H12         43.9931   -44.2833    62.8463 H            1 GDM275   0.0000
    53 H13         43.4046   -46.3512    63.9017 H            1 GDM275   0.0000
    54 H14         43.3478   -45.6161    66.1712 H            1 GDM275   0.0000
    55 H15         44.9714   -45.4450    66.1333 H            1 GDM275   0.0000
    56 H16         45.3016   -47.7098    66.0782 H            1 GDM275   0.0000
    57 H17         44.8260   -46.9985    68.2986 H            1 GDM275   0.0000
    58 H18         44.3205   -48.5364    68.0840 H            1 GDM275   0.0000
    59 H19         39.0567   -46.5714    69.3342 H            1 GDM275   0.0000
    60 H20         41.0618   -51.1584    65.2159 H            1 GDM275   0.0000
    61 H21         41.3952   -51.4349    66.7904 H            1 GDM275   0.0000
    62 H22         40.0601   -52.0859    66.1119 H            1 GDM275   0.0000
    63 H23         37.0453   -48.7220    61.1999 H            1 GDM275   0.0000
    64 H24         38.6295   -48.3276    61.1621 H            1 GDM275   0.0000
    65 H25         38.0673   -49.3394    62.3139 H            1 GDM275   0.0000
    66 H26         40.7131   -44.4220    66.1018 H            1 GDM275   0.0000
    67 H27         39.1308   -44.2434    65.7398 H            1 GDM275   0.0000
    68 H28         39.7579   -45.7371    65.9453 H            1 GDM275   0.0000
    69 H29         43.2371   -41.7996    64.4234 H            1 GDM275   0.0000
    70 H30         42.5315   -42.1349    62.9894 H            1 GDM275   0.0000
    71 H31         41.6115   -41.9154    64.3206 H            1 GDM275   0.0000
    72 H32         46.2966   -46.7830    62.0116 H            1 GDM275   0.0000
    73 H33         44.7007   -47.1250    62.0617 H            1 GDM275   0.0000
    74 H34         45.1993   -45.5833    61.8590 H            1 GDM275   0.0000
    75 H35         43.5641   -49.2807    65.8369 H            1 GDM275   0.0000
    76 H36         42.5034   -48.0544    65.6431 H            1 GDM275   0.0000
    77 H37         43.6816   -48.2970    64.5388 H            1 GDM275   0.0000
    78 H38         45.0136   -43.9151    68.7869 H            1 GDM275   0.0000
    79 H39         44.6846   -45.0726    69.8908 H            1 GDM275   0.0000
    80 H40         45.1273   -45.4914    68.3758 H            1 GDM275   0.0000
@<TRIPOS>BOND
     1    1   12       2
     2    2   17       1
     3    2   34       1
     4    3   18       1
     5    3   35       1
     6    4   35       2
     7    5   22       1
     8    6   23       1
     9    6   38       1
    10    7   28       1
    11    7   40       1
    12    8   29       2
    13    9   32       2
    14   10   12      am
    15   10   31       1
    16   11   35      am
    17   12   13       1
    18   13   14       2
    19   13   33       1
    20   14   15       1
    21   15   16       2
    22   16   17       1
    23   17   18       1
    24   18   19       1
    25   19   20       2
    26   19   36       1
    27   20   21       1
    28   21   22       1
    29   21   37       1
    30   22   23       1
    31   23   24       1
    32   24   25       1
    33   25   26       1
    34   25   39       1
    35   26   27       1
    36   27   28       2
    37   27   32       1
    38   28   29       1
    39   29   30       1
    40   30   31       2
    41   31   32       1
    42    5   41       1
    43   10   42       1
    44   11   43       1
    45   11   44       1
    46   14   45       1
    47   15   46       1
    48   16   47       1
    49   17   48       1
    50   18   49       1
    51   20   50       1
    52   21   51       1
    53   22   52       1
    54   23   53       1
    55   24   54       1
    56   24   55       1
    57   25   56       1
    58   26   57       1
    59   26   58       1
    60   30   59       1
    61   33   60       1
    62   33   61       1
    63   33   62       1
    64   34   63       1
    65   34   64       1
    66   34   65       1
    67   36   66       1
    68   36   67       1
    69   36   68       1
    70   37   69       1
    71   37   70       1
    72   37   71       1
    73   38   72       1
    74   38   73       1
    75   38   74       1
    76   39   75       1
    77   39   76       1
    78   39   77       1
    79   40   78       1
    80   40   79       1
    81   40   80       1
@<TRIPOS>SUBSTRUCTURE
     1 GDM275      1 GROUP             4 A     GDM     0 **** GDM A 275
