@<TRIPOS>MOLECULE
2g0b_NLT_5_ligand
   58    58     1     0     0
SMALL
NO_CHARGES


@<TRIPOS>ATOM
     1 N           43.9030    96.2860    30.3350 N.am         1 NLT404   0.0000
     2 C1          43.3650    97.1350    29.4380 C.2          1 NLT404   0.0000
     3 OL          43.9430    97.4740    28.4120 O.2          1 NLT404   0.0000
     4 C2          41.9940    97.7020    29.7820 C.3          1 NLT404   0.0000
     5 C3          40.9310    97.4440    28.7030 C.3          1 NLT404   0.0000
     6 C4          39.7440    98.4130    28.8470 C.3          1 NLT404   0.0000
     7 C5          38.6370    98.1130    27.8360 C.3          1 NLT404   0.0000
     8 C6          37.4580    99.0900    27.9100 C.3          1 NLT404   0.0000
     9 C7          36.1710    98.4630    27.3590 C.3          1 NLT404   0.0000
    10 C8          34.9550    99.3830    27.5130 C.3          1 NLT404   0.0000
    11 C9          33.9820    99.2740    26.3300 C.3          1 NLT404   0.0000
    12 C10         32.6090    98.7550    26.7680 C.3          1 NLT404   0.0000
    13 C11         31.5040    99.7790    26.5100 C.3          1 NLT404   0.0000
    14 C12         30.4200    99.7160    27.5710 C.3          1 NLT404   0.0000
    15 CA          45.1700    95.5840    30.1040 C.3          1 NLT404   0.0000
    16 CB          45.5060    94.6150    31.2350 C.3          1 NLT404   0.0000
    17 CG          46.1330    95.3020    32.4190 C.ar         1 NLT404   0.0000
    18 CD2         47.0700    96.3270    32.2560 C.ar         1 NLT404   0.0000
    19 CE2         47.6290    96.9400    33.3790 C.ar         1 NLT404   0.0000
    20 CZ          47.2510    96.5190    34.6550 C.ar         1 NLT404   0.0000
    21 CE1         46.3240    95.4930    34.8090 C.ar         1 NLT404   0.0000
    22 CD1         45.7700    94.8810    33.6940 C.ar         1 NLT404   0.0000
    23 OH          47.7710    97.0950    35.7280 O.3          1 NLT404   0.0000
    24 C           45.1290    94.7620    28.8560 C.2          1 NLT404   0.0000
    25 O           44.0230    94.3150    28.4940 O.co2        1 NLT404   0.0000
    26 O2          46.1970    94.5440    28.2420 O.co2        1 NLT404  -1.0000
    27 H1          43.4179    96.1276    31.1950 H            1 NLT404   0.0000
    28 H2          42.0833    98.6901    29.9074 H            1 NLT404   0.0000
    29 H3          41.6847    97.2842    30.6363 H            1 NLT404   0.0000
    30 H4          40.5981    96.5052    28.7912 H            1 NLT404   0.0000
    31 H5          41.3451    97.5675    27.8012 H            1 NLT404   0.0000
    32 H6          40.0699    99.3472    28.7018 H            1 NLT404   0.0000
    33 H7          39.3694    98.3304    29.7705 H            1 NLT404   0.0000
    34 H8          38.2938    97.1896    28.0076 H            1 NLT404   0.0000
    35 H9          39.0277    98.1579    26.9166 H            1 NLT404   0.0000
    36 H10         37.6775    99.9050    27.3738 H            1 NLT404   0.0000
    37 H11         37.3102    99.3489    28.8645 H            1 NLT404   0.0000
    38 H12         35.9929    97.6114    27.8521 H            1 NLT404   0.0000
    39 H13         36.3017    98.2647    26.3876 H            1 NLT404   0.0000
    40 H14         35.2744   100.3283    27.5796 H            1 NLT404   0.0000
    41 H15         34.4695    99.1353    28.3514 H            1 NLT404   0.0000
    42 H16         34.3647    98.6453    25.6531 H            1 NLT404   0.0000
    43 H17         33.8699   100.1786    25.9188 H            1 NLT404   0.0000
    44 H18         32.6379    98.5500    27.7463 H            1 NLT404   0.0000
    45 H19         32.4014    97.9200    26.2585 H            1 NLT404   0.0000
    46 H20         31.0940    99.5950    25.6167 H            1 NLT404   0.0000
    47 H21         31.9048   100.6951    26.5104 H            1 NLT404   0.0000
    48 H22         29.7167   100.3978    27.3698 H            1 NLT404   0.0000
    49 H23         30.0092    98.8043    27.5741 H            1 NLT404   0.0000
    50 H24         30.8201    99.9044    28.4679 H            1 NLT404   0.0000
    51 HA          45.9047    96.2578    30.0249 H            1 NLT404   0.0000
    52 HB1         46.1442    93.9275    30.8887 H            1 NLT404   0.0000
    53 HB2         44.6634    94.1670    31.5339 H            1 NLT404   0.0000
    54 HD2         47.3388    96.6199    31.3384 H            1 NLT404   0.0000
    55 HE2         48.2965    97.6766    33.2698 H            1 NLT404   0.0000
    56 HE1         46.0564    95.1960    35.7256 H            1 NLT404   0.0000
    57 HD1         45.1104    94.1379    33.8068 H            1 NLT404   0.0000
    58 HH          47.4979    96.7909    36.6407 H            1 NLT404   0.0000
@<TRIPOS>BOND
     1    1    2      am
     2    1   15       1
     3    2    3       2
     4    2    4       1
     5    4    5       1
     6    5    6       1
     7    6    7       1
     8    7    8       1
     9    8    9       1
    10    9   10       1
    11   10   11       1
    12   11   12       1
    13   12   13       1
    14   13   14       1
    15   15   16       1
    16   15   24       1
    17   16   17       1
    18   17   18      ar
    19   17   22      ar
    20   18   19      ar
    21   19   20      ar
    22   20   21      ar
    23   20   23       1
    24   21   22      ar
    25   24   25      ar
    26   24   26      ar
    27    1   27       1
    28    4   28       1
    29    4   29       1
    30    5   30       1
    31    5   31       1
    32    6   32       1
    33    6   33       1
    34    7   34       1
    35    7   35       1
    36    8   36       1
    37    8   37       1
    38    9   38       1
    39    9   39       1
    40   10   40       1
    41   10   41       1
    42   11   42       1
    43   11   43       1
    44   12   44       1
    45   12   45       1
    46   13   46       1
    47   13   47       1
    48   14   48       1
    49   14   49       1
    50   14   50       1
    51   15   51       1
    52   16   52       1
    53   16   53       1
    54   18   54       1
    55   19   55       1
    56   21   56       1
    57   22   57       1
    58   23   58       1
@<TRIPOS>SUBSTRUCTURE
     1 NLT404      1 GROUP             4 E     NLT     0 **** NLT E 404
