@<TRIPOS>MOLECULE
3eg5_GNP_2_ligand
   46    48     1     0     0
SMALL
NO_CHARGES


@<TRIPOS>ATOM
     1 PG         -71.2750    37.8110   -71.8610 P.3          1 GNP179   0.0000
     2 O1G        -70.1690    38.8280   -71.7170 O.co2        1 GNP179   0.0000
     3 O2G        -71.7090    37.5430   -73.2760 O.co2        1 GNP179  -1.0000
     4 O3G        -72.3380    38.3160   -70.9110 O.co2        1 GNP179  -1.0000
     5 N3B        -70.7450    36.4060   -71.3230 N.3          1 GNP179   0.0000
     6 PB         -71.6080    35.0780   -71.1970 P.3          1 GNP179   0.0000
     7 O1B        -72.2430    34.9860   -69.8740 O.co2        1 GNP179   0.0000
     8 O2B        -72.4480    35.0400   -72.4130 O.co2        1 GNP179  -1.0000
     9 O3A        -70.6690    33.8690   -71.1550 O.3          1 GNP179   0.0000
    10 PA         -70.3960    32.8830   -72.2990 P.3          1 GNP179   0.0000
    11 O1A        -71.6310    32.0790   -72.5030 O.co2        1 GNP179   0.0000
    12 O2A        -69.8830    33.5740   -73.5030 O.co2        1 GNP179  -1.0000
    13 O5'        -69.2800    31.9050   -71.7480 O.3          1 GNP179   0.0000
    14 C5'        -68.0320    32.3820   -71.2310 C.3          1 GNP179   0.0000
    15 C4'        -66.9980    31.2680   -71.0730 C.3          1 GNP179   0.0000
    16 O4'        -67.4520    30.2990   -70.0930 O.3          1 GNP179   0.0000
    17 C3'        -66.6310    30.4820   -72.3300 C.3          1 GNP179   0.0000
    18 O3'        -65.2230    30.4690   -72.4950 O.3          1 GNP179   0.0000
    19 C2'        -67.1270    29.0650   -72.0670 C.3          1 GNP179   0.0000
    20 O2'        -66.2130    28.0770   -72.4980 O.3          1 GNP179   0.0000
    21 C1'        -67.2490    28.9810   -70.5520 C.3          1 GNP179   0.0000
    22 N9         -68.3900    28.1610   -70.1490 N.pl3        1 GNP179   0.0000
    23 C8         -69.7170    28.4620   -70.3490 C.2          1 GNP179   0.0000
    24 N7         -70.5370    27.5580   -69.8920 N.2          1 GNP179   1.0000
    25 C5         -69.7100    26.5840   -69.3590 C.2          1 GNP179   0.0000
    26 C6         -70.0440    25.3620   -68.7260 C.2          1 GNP179   0.0000
    27 O6         -71.1650    24.8860   -68.5070 O.2          1 GNP179   0.0000
    28 N1         -68.9130    24.6600   -68.3260 N.pl3        1 GNP179   0.0000
    29 C2         -67.6300    25.0920   -68.5170 C.2          1 GNP179   0.0000
    30 N2         -66.6860    24.2660   -68.0580 N.pl3        1 GNP179   0.0000
    31 N3         -67.2900    26.2360   -69.1050 N.2          1 GNP179   0.0000
    32 C4         -68.3790    26.9370   -69.5060 C.2          1 GNP179   0.0000
    33 H3B        -69.9788    36.1671   -71.9196 H            1 GNP179   0.0000
    34 H5'1       -68.1939    32.7981   -70.3362 H            1 GNP179   0.0000
    35 H5'2       -67.6677    33.0707   -71.8579 H            1 GNP179   0.0000
    36 H4'        -66.1590    31.6828   -70.7209 H            1 GNP179   0.0000
    37 H3'        -67.0789    30.8710   -73.1350 H            1 GNP179   0.0000
    38 H6         -64.8949    29.5244   -72.4847 H            1 GNP179   0.0000
    39 H2'        -68.0193    28.9239   -72.4959 H            1 GNP179   0.0000
    40 H8         -66.3005    27.2666   -71.9187 H            1 GNP179   0.0000
    41 H1'        -66.4066    28.6094   -70.1617 H            1 GNP179   0.0000
    42 H10        -70.0245    29.2980   -70.8035 H            1 GNP179   0.0000
    43 H11        -69.0465    23.7810   -67.8683 H            1 GNP179   0.0000
    44 H12        -65.7203    24.5060   -68.1571 H            1 GNP179   0.0000
    45 H13        -66.9449    23.4076   -67.6152 H            1 GNP179   0.0000
    46 H14        -71.5366    27.5661   -69.9200 H            1 GNP179   0.0000
@<TRIPOS>BOND
     1    1    2      ar
     2    1    3      ar
     3    1    4      ar
     4    1    5       1
     5    5    6       1
     6    6    7      ar
     7    6    8      ar
     8    6    9       1
     9    9   10       1
    10   10   11      ar
    11   10   12      ar
    12   10   13       1
    13   13   14       1
    14   14   15       1
    15   15   16       1
    16   15   17       1
    17   16   21       1
    18   17   18       1
    19   17   19       1
    20   19   20       1
    21   19   21       1
    22   21   22       1
    23   22   23       1
    24   22   32       1
    25   23   24       2
    26   24   25       1
    27   25   26       1
    28   25   32       2
    29   26   27       2
    30   26   28       1
    31   28   29       1
    32   29   30       1
    33   29   31       2
    34   31   32       1
    35   30   45       1
    36   30   44       1
    37    5   33       1
    38   28   43       1
    39   23   42       1
    40   14   34       1
    41   14   35       1
    42   15   36       1
    43   17   37       1
    44   18   38       1
    45   19   39       1
    46   20   40       1
    47   21   41       1
    48   24   46       1
@<TRIPOS>SUBSTRUCTURE
     1 GNP179      1 GROUP             4 C     GNP     0 **** GNP C 179
