@<TRIPOS>MOLECULE
3gwl_FAD_2_ligand
   84    89     1     0     0
SMALL
NO_CHARGES


@<TRIPOS>ATOM
     1 PA          36.1350    14.5520   -24.7950 P.3          1 FAD335   0.0000
     2 O1A         37.2830    15.4240   -24.4250 O.co2        1 FAD335   0.0000
     3 O2A         35.4780    13.4080   -24.0880 O.co2        1 FAD335  -1.0000
     4 O5B         35.3740    14.6410   -26.1480 O.3          1 FAD335   0.0000
     5 C5B         34.0560    15.1770   -26.0880 C.3          1 FAD335   0.0000
     6 C4B         33.7240    15.3630   -27.5500 C.3          1 FAD335   0.0000
     7 O4B         33.3110    16.7340   -27.2950 O.3          1 FAD335   0.0000
     8 C3B         34.6570    15.5170   -28.7780 C.3          1 FAD335   0.0000
     9 O3B         34.5210    14.2530   -29.4370 O.3          1 FAD335   0.0000
    10 C2B         34.2250    16.7320   -29.4600 C.3          1 FAD335   0.0000
    11 O2B         33.1070    16.5140   -30.2650 O.3          1 FAD335   0.0000
    12 C1B         33.9000    17.6250   -28.2510 C.3          1 FAD335   0.0000
    13 N9A         34.7670    18.5860   -27.6570 N.pl3        1 FAD335   0.0000
    14 C8A         36.1790    18.6650   -27.5380 C.2          1 FAD335   0.0000
    15 N7A         36.7090    19.7160   -26.9850 N.2          1 FAD335   0.0000
    16 C5A         35.5730    20.4700   -26.6740 C.ar         1 FAD335   0.0000
    17 C6A         35.2930    21.7440   -26.1320 C.ar         1 FAD335   0.0000
    18 N6A         36.3090    22.5180   -25.7360 N.pl3        1 FAD335   0.0000
    19 N1A         34.0060    22.2250   -25.9340 N.ar         1 FAD335   0.0000
    20 C2A         32.9120    21.5110   -26.3090 C.ar         1 FAD335   0.0000
    21 N3A         33.1430    20.2470   -26.8710 N.ar         1 FAD335   0.0000
    22 C4A         34.4880    19.8120   -27.0480 C.ar         1 FAD335   0.0000
    23 N1          40.4780    12.6700   -17.7810 N.2          1 FAD335   0.0000
    24 C2          41.7410    12.5240   -17.2540 C.2          1 FAD335   0.0000
    25 O2          42.2910    11.4850   -17.6530 O.2          1 FAD335   0.0000
    26 N3          42.0750    13.5480   -16.3790 N.pl3        1 FAD335   0.0000
    27 C4          41.2140    14.6150   -16.0310 C.2          1 FAD335   0.0000
    28 O4          41.6550    15.5120   -15.2440 O.2          1 FAD335   0.0000
    29 C4X         39.9470    14.6780   -16.5750 C.2          1 FAD335   0.0000
    30 N5          38.9710    15.6530   -16.1980 N.2          1 FAD335   0.0000
    31 C5X         37.6220    15.6880   -16.6140 C.ar         1 FAD335   0.0000
    32 C6          36.7840    16.7020   -16.1000 C.ar         1 FAD335   0.0000
    33 C7          35.4180    16.6950   -16.4990 C.ar         1 FAD335   0.0000
    34 C7M         34.6030    17.8680   -15.9520 C.3          1 FAD335   0.0000
    35 C8          34.9090    15.6950   -17.3750 C.ar         1 FAD335   0.0000
    36 C8M         33.5430    15.5280   -18.0020 C.3          1 FAD335   0.0000
    37 C9          35.7710    14.7090   -17.8690 C.ar         1 FAD335   0.0000
    38 C9A         37.1460    14.6410   -17.5460 C.ar         1 FAD335   0.0000
    39 N10         38.2760    13.7680   -17.9510 N.pl3        1 FAD335   0.0000
    40 C10         39.5640    13.6560   -17.4970 C.2          1 FAD335   0.0000
    41 C1'         38.0990    13.0510   -19.1680 C.3          1 FAD335   0.0000
    42 C2'         38.3830    13.5910   -20.5390 C.3          1 FAD335   0.0000
    43 O2'         38.2770    15.0370   -20.5070 O.3          1 FAD335   0.0000
    44 C3'         37.7180    12.9010   -21.6880 C.3          1 FAD335   0.0000
    45 O3'         36.3100    13.0940   -21.6170 O.3          1 FAD335   0.0000
    46 C4'         38.1940    11.5110   -22.1030 C.3          1 FAD335   0.0000
    47 O4'         39.5880    11.1710   -21.8360 O.3          1 FAD335   0.0000
    48 C5'         37.8320    10.9330   -23.4080 C.3          1 FAD335   0.0000
    49 O5'         38.4180    11.7630   -24.4160 O.3          1 FAD335   0.0000
    50 P           37.7250    12.1870   -25.7590 P.3          1 FAD335   0.0000
    51 O1P         38.8210    12.1360   -26.7290 O.co2        1 FAD335   0.0000
    52 O2P         36.5470    11.3720   -26.1470 O.co2        1 FAD335  -1.0000
    53 O3P         37.0640    13.6600   -25.7190 O.3          1 FAD335   0.0000
    54 H5B1        34.0405    16.0488   -25.5984 H            1 FAD335   0.0000
    55 H5B2        33.4236    14.5377   -25.6505 H            1 FAD335   0.0000
    56 H4B         32.9293    14.8068   -27.7929 H            1 FAD335   0.0000
    57 H3B         35.6005    15.6290   -28.4661 H            1 FAD335   0.0000
    58 H5          35.0913    14.2423   -30.2584 H            1 FAD335   0.0000
    59 H2B         34.9745    17.1217   -29.9951 H            1 FAD335   0.0000
    60 H7          32.5633    17.3518   -30.3144 H            1 FAD335   0.0000
    61 H1B         33.1257    18.1731   -28.5672 H            1 FAD335   0.0000
    62 H8A         36.7584    17.9228   -27.8747 H            1 FAD335   0.0000
    63 H6A1        36.1276    23.4226   -25.3502 H            1 FAD335   0.0000
    64 H6A2        37.2502    22.1922   -25.8257 H            1 FAD335   0.0000
    65 H2A         31.9863    21.8699   -26.1898 H            1 FAD335   0.0000
    66 H13         42.9859    13.5304   -15.9666 H            1 FAD335   0.0000
    67 H14         37.1380    17.4002   -15.4777 H            1 FAD335   0.0000
    68 H7M1        33.6586    17.7960   -16.2727 H            1 FAD335   0.0000
    69 H7M2        34.6181    17.8470   -14.9523 H            1 FAD335   0.0000
    70 H7M3        34.9995    18.7280   -16.2734 H            1 FAD335   0.0000
    71 H8M1        33.5350    14.7044   -18.5692 H            1 FAD335   0.0000
    72 H8M2        32.8539    15.4438   -17.2822 H            1 FAD335   0.0000
    73 H8M3        33.3368    16.3254   -18.5692 H            1 FAD335   0.0000
    74 H21         35.3943    14.0156   -18.4832 H            1 FAD335   0.0000
    75 H1'1        37.1352    12.7846   -19.1817 H            1 FAD335   0.0000
    76 H1'2        38.6694    12.2343   -19.0806 H            1 FAD335   0.0000
    77 H2'         39.3581    13.4172   -20.6765 H            1 FAD335   0.0000
    78 H25         38.8945    15.4316   -21.1874 H            1 FAD335   0.0000
    79 H3'         37.9804    13.4677   -22.4690 H            1 FAD335   0.0000
    80 H27         35.9261    13.0909   -22.5404 H            1 FAD335   0.0000
    81 H4'         37.7038    10.9182   -21.4640 H            1 FAD335   0.0000
    82 H29         39.7707    10.2404   -22.1531 H            1 FAD335   0.0000
    83 H5'1        36.8375    10.9181   -23.5120 H            1 FAD335   0.0000
    84 H5'2        38.1888    10.0017   -23.4810 H            1 FAD335   0.0000
@<TRIPOS>BOND
     1    1    2      ar
     2    1    3      ar
     3    1    4       1
     4    1   53       1
     5    4    5       1
     6    5    6       1
     7    6    7       1
     8    6    8       1
     9    7   12       1
    10    8    9       1
    11    8   10       1
    12   10   11       1
    13   10   12       1
    14   12   13       1
    15   13   14       1
    16   13   22       1
    17   14   15       2
    18   15   16       1
    19   16   17      ar
    20   16   22      ar
    21   17   18       1
    22   17   19      ar
    23   19   20      ar
    24   20   21      ar
    25   21   22      ar
    26   23   24       1
    27   23   40       2
    28   24   25       2
    29   24   26       1
    30   26   27       1
    31   27   28       2
    32   27   29       1
    33   29   30       2
    34   29   40       1
    35   30   31       1
    36   31   32      ar
    37   31   38      ar
    38   32   33      ar
    39   33   34       1
    40   33   35      ar
    41   35   36       1
    42   35   37      ar
    43   37   38      ar
    44   38   39       1
    45   39   40       1
    46   39   41       1
    47   41   42       1
    48   42   43       1
    49   42   44       1
    50   44   45       1
    51   44   46       1
    52   46   47       1
    53   46   48       1
    54   48   49       1
    55   49   50       1
    56   50   51      ar
    57   50   52      ar
    58   50   53       1
    59   48   84       1
    60    5   54       1
    61    5   55       1
    62    6   56       1
    63    8   57       1
    64    9   58       1
    65   10   59       1
    66   11   60       1
    67   12   61       1
    68   14   62       1
    69   18   63       1
    70   18   64       1
    71   20   65       1
    72   26   66       1
    73   32   67       1
    74   34   68       1
    75   34   69       1
    76   34   70       1
    77   36   71       1
    78   36   72       1
    79   36   73       1
    80   37   74       1
    81   41   75       1
    82   41   76       1
    83   42   77       1
    84   43   78       1
    85   44   79       1
    86   45   80       1
    87   46   81       1
    88   47   82       1
    89   48   83       1
@<TRIPOS>SUBSTRUCTURE
     1 FAD335      1 GROUP             4 B     FAD     0 **** FAD B 335
