@<TRIPOS>MOLECULE
4uc0_HPA_1_ligand
   14    15     1     0     0
SMALL
NO_CHARGES


@<TRIPOS>ATOM
     1 N1         -10.5640    44.5540    10.3900 N.pl3        1 HPA301   0.0000
     2 C2          -9.9170    44.4260    11.5690 C.2          1 HPA301   0.0000
     3 N3          -9.8330    43.2620    12.2410 N.2          1 HPA301   0.0000
     4 C4         -10.4030    42.1630    11.7180 C.2          1 HPA301   0.0000
     5 C5         -11.1270    42.2080    10.4460 C.2          1 HPA301   0.0000
     6 C6         -11.1790    43.5330     9.7630 C.2          1 HPA301   0.0000
     7 O6         -11.7630    43.7310     8.6590 O.2          1 HPA301   0.0000
     8 N7         -11.5670    40.9600    10.2600 N.pl3        1 HPA301   0.0000
     9 C8         -11.1610    40.1850    11.3130 C.2          1 HPA301   0.0000
    10 N9         -10.4490    40.9160    12.2140 N.2          1 HPA301   0.0000
    11 H1         -10.5876    45.4562     9.9593 H            1 HPA301   0.0000
    12 H2          -9.4792    45.2348    11.9617 H            1 HPA301   0.0000
    13 H3         -11.3612    39.2098    11.4078 H            1 HPA301   0.0000
    14 H4         -12.1052    40.6437     9.4788 H            1 HPA301   0.0000
@<TRIPOS>BOND
     1    1    2       1
     2    1    6       1
     3    2    3       2
     4    3    4       1
     5    4    5       2
     6    4   10       1
     7    5    6       1
     8    5    8       1
     9    6    7       2
    10    8    9       1
    11    9   10       2
    12    1   11       1
    13    2   12       1
    14    9   13       1
    15    8   14       1
@<TRIPOS>SUBSTRUCTURE
     1 HPA301      1 GROUP             4 A     HPA     0 **** HPA A 301
