@<TRIPOS>MOLECULE
2cts_COA_1_ligand
   80    82     1     0     0
SMALL
NO_CHARGES


@<TRIPOS>ATOM
     1 N1A         19.7330    -8.1740    13.4600 N.ar         1 COA438   0.0000
     2 C2A         19.3020    -8.8150    14.5070 C.ar         1 COA438   0.0000
     3 N3A         18.4580    -9.8470    14.5390 N.ar         1 COA438   0.0000
     4 C4A         18.0580   -10.2090    13.3830 C.ar         1 COA438   0.0000
     5 C5A         18.4740    -9.5240    12.2330 C.ar         1 COA438   0.0000
     6 C6A         19.3460    -8.4480    12.2900 C.ar         1 COA438   0.0000
     7 N6A         19.8430    -7.8880    11.1930 N.pl3        1 COA438   0.0000
     8 N7A         17.8990   -10.0500    11.2310 N.2          1 COA438   0.0000
     9 C8A         17.1060   -11.1010    11.6660 C.2          1 COA438   0.0000
    10 N9A         17.2760   -11.1310    13.0440 N.pl3        1 COA438   0.0000
    11 C1B         16.6950   -12.0010    14.1160 C.3          1 COA438   0.0000
    12 C2B         15.3290   -11.4750    14.6260 C.3          1 COA438   0.0000
    13 O2B         15.5690   -11.1800    16.0170 O.3          1 COA438   0.0000
    14 C3B         14.3140   -12.6000    14.6230 C.3          1 COA438   0.0000
    15 O3B         14.1330   -13.0690    15.9260 O.3          1 COA438   0.0000
    16 P3B         12.6310   -13.2020    16.5650 P.3          1 COA438   0.0000
    17 O7A         12.8700   -13.3920    18.1020 O.co2        1 COA438   0.0000
    18 O8A         11.8040   -11.8860    16.2590 O.co2        1 COA438  -1.0000
    19 O9A         11.8710   -14.3690    15.9470 O.co2        1 COA438  -1.0000
    20 C4B         14.9560   -13.6830    13.7860 C.3          1 COA438   0.0000
    21 O4B         16.3480   -13.3010    13.6330 O.3          1 COA438   0.0000
    22 C5B         14.2790   -13.5940    12.4460 C.3          1 COA438   0.0000
    23 O5B         14.4840   -14.6850    11.6050 O.3          1 COA438   0.0000
    24 P1A         14.8070   -14.3630    10.0450 P.3          1 COA438   0.0000
    25 O1A         16.3220   -14.3170     9.9180 O.co2        1 COA438   0.0000
    26 O2A         14.1390   -15.4020     9.1730 O.co2        1 COA438  -1.0000
    27 O3A         14.3000   -12.8780     9.6750 O.3          1 COA438   0.0000
    28 P2A         13.0730   -12.6220     8.5870 P.3          1 COA438   0.0000
    29 O4A         13.2190   -13.5550     7.3600 O.co2        1 COA438   0.0000
    30 O5A         11.6940   -12.7770     9.3280 O.co2        1 COA438  -1.0000
    31 O6A         13.2820   -11.0310     8.1510 O.3          1 COA438   0.0000
    32 CBP         14.6540    -9.0330     7.5970 C.3          1 COA438   0.0000
    33 CCP         14.4410   -10.5550     7.4480 C.3          1 COA438   0.0000
    34 CDP         15.0730    -8.5330     6.2310 C.3          1 COA438   0.0000
    35 CEP         13.3350    -8.4020     8.0330 C.3          1 COA438   0.0000
    36 CAP         15.8520    -8.6650     8.5400 C.3          1 COA438   0.0000
    37 OAP         16.7010    -9.8410     8.5890 O.3          1 COA438   0.0000
    38 C9P         15.5890    -7.8650     9.8660 C.2          1 COA438   0.0000
    39 O9P         14.6710    -8.0720    10.7290 O.2          1 COA438   0.0000
    40 N8P         16.3840    -6.8600    10.1280 N.am         1 COA438   0.0000
    41 C7P         17.2650    -6.1830     9.1780 C.3          1 COA438   0.0000
    42 C6P         16.4030    -5.1240     8.4080 C.3          1 COA438   0.0000
    43 C5P         17.1740    -3.8260     8.3190 C.2          1 COA438   0.0000
    44 O5P         18.0470    -3.7010     7.4280 O.2          1 COA438   0.0000
    45 N4P         16.8040    -2.9190     9.2000 N.am         1 COA438   0.0000
    46 C3P         17.3510    -1.5670     9.2930 C.3          1 COA438   0.0000
    47 C2P         16.5390    -0.7230    10.2880 C.3          1 COA438   0.0000
    48 S1P         16.8860    -0.9910    12.0340 S.3          1 COA438   0.0000
    49 H2A         19.6436    -8.4965    15.3912 H            1 COA438   0.0000
    50 H6A1        19.4912    -8.1503    10.2944 H            1 COA438   0.0000
    51 H6A2        20.5690    -7.2041    11.2657 H            1 COA438   0.0000
    52 H8A         16.5362   -11.7053    11.1091 H            1 COA438   0.0000
    53 H1B         17.3374   -12.0796    14.8783 H            1 COA438   0.0000
    54 H2B         15.0135   -10.6752    14.1154 H            1 COA438   0.0000
    55 H7          16.2905   -10.4917    16.0921 H            1 COA438   0.0000
    56 H3B         13.4470   -12.3021    14.2235 H            1 COA438   0.0000
    57 H4B         14.8565   -14.5881    14.1995 H            1 COA438   0.0000
    58 H5B1        14.6192   -12.7766    11.9811 H            1 COA438   0.0000
    59 H5B2        13.2953   -13.5038    12.6017 H            1 COA438   0.0000
    60 HCP1        14.3346   -10.7683     6.4768 H            1 COA438   0.0000
    61 HCP2        15.2469   -11.0262     7.8064 H            1 COA438   0.0000
    62 HDP1        15.2255    -7.5455     6.2698 H            1 COA438   0.0000
    63 HDP2        15.9180    -8.9901     5.9535 H            1 COA438   0.0000
    64 HDP3        14.3523    -8.7332     5.5673 H            1 COA438   0.0000
    65 HEP1        13.4554    -7.4145     8.1344 H            1 COA438   0.0000
    66 HEP2        12.6345    -8.5833     7.3427 H            1 COA438   0.0000
    67 HEP3        13.0506    -8.7947     8.9076 H            1 COA438   0.0000
    68 HAP         16.3853    -8.0228     7.9894 H            1 COA438   0.0000
    69 H21         17.1645    -9.8809     9.4742 H            1 COA438   0.0000
    70 H8P         16.3897    -6.5221    11.0692 H            1 COA438   0.0000
    71 H7P1        17.6466    -6.8461     8.5340 H            1 COA438   0.0000
    72 H7P2        18.0088    -5.7274     9.6671 H            1 COA438   0.0000
    73 H6P1        15.5451    -4.9706     8.8983 H            1 COA438   0.0000
    74 H6P2        16.2052    -5.4595     7.4870 H            1 COA438   0.0000
    75 H4P         16.0940    -3.1755     9.8558 H            1 COA438   0.0000
    76 H3P1        17.3167    -1.1357     8.3914 H            1 COA438   0.0000
    77 H3P2        18.3005    -1.6171     9.6026 H            1 COA438   0.0000
    78 H2P1        15.5707    -0.9215    10.1362 H            1 COA438   0.0000
    79 H2P2        16.7174     0.2401    10.0866 H            1 COA438   0.0000
    80 H1P         16.3040    -0.3930    12.5851 H            1 COA438   0.0000
@<TRIPOS>BOND
     1    1    2      ar
     2    1    6      ar
     3    2    3      ar
     4    3    4      ar
     5    4    5      ar
     6    4   10       1
     7    5    6      ar
     8    5    8       1
     9    6    7       1
    10    8    9       2
    11    9   10       1
    12   10   11       1
    13   11   12       1
    14   11   21       1
    15   12   13       1
    16   12   14       1
    17   14   15       1
    18   14   20       1
    19   15   16       1
    20   16   17      ar
    21   16   18      ar
    22   16   19      ar
    23   20   21       1
    24   20   22       1
    25   22   23       1
    26   23   24       1
    27   24   25      ar
    28   24   26      ar
    29   24   27       1
    30   27   28       1
    31   28   29      ar
    32   28   30      ar
    33   28   31       1
    34   31   33       1
    35   32   33       1
    36   32   34       1
    37   32   35       1
    38   32   36       1
    39   36   37       1
    40   36   38       1
    41   38   39       2
    42   38   40      am
    43   40   41       1
    44   41   42       1
    45   42   43       1
    46   43   44       2
    47   43   45      am
    48   45   46       1
    49   46   47       1
    50   47   48       1
    51    2   49       1
    52    7   50       1
    53    7   51       1
    54    9   52       1
    55   11   53       1
    56   12   54       1
    57   13   55       1
    58   14   56       1
    59   48   80       1
    60   47   79       1
    61   20   57       1
    62   22   58       1
    63   22   59       1
    64   47   78       1
    65   46   77       1
    66   33   60       1
    67   33   61       1
    68   34   62       1
    69   34   63       1
    70   34   64       1
    71   35   65       1
    72   35   66       1
    73   35   67       1
    74   36   68       1
    75   37   69       1
    76   40   70       1
    77   41   71       1
    78   41   72       1
    79   42   73       1
    80   42   74       1
    81   45   75       1
    82   46   76       1
@<TRIPOS>SUBSTRUCTURE
     1 COA438      1 GROUP             4 A     COA     0 **** COA A 438
