@<TRIPOS>MOLECULE
2zb4_5OP_1_ligand
   44    44     1     0     0
SMALL
NO_CHARGES


@<TRIPOS>ATOM
     1 C5          14.5540    41.6270    59.1760 C.3          1 5OP600   0.0000
     2 C6          15.0260    40.4570    58.3650 C.2          1 5OP600   0.0000
     3 C7          16.0680    40.6720    57.5460 C.2          1 5OP600   0.0000
     4 C8          16.6450    39.7550    56.7300 C.2          1 5OP600   0.0000
     5 C9          17.9480    40.0860    56.2030 C.3          1 5OP600   0.0000
     6 C10         18.9850    39.2410    55.9580 C.3          1 5OP600   0.0000
     7 O1          19.5010    38.6010    56.8730 O.3          1 5OP600   0.0000
     8 C11         20.0420    39.8750    55.4500 C.3          1 5OP600   0.0000
     9 C12         19.5200    41.1050    54.6530 C.2          1 5OP600   0.0000
    10 O2          19.8180    41.6270    53.5790 O.2          1 5OP600   0.0000
    11 C13         17.8950    40.9630    54.8100 C.3          1 5OP600   0.0000
    12 C14         17.5190    40.1890    53.4730 C.3          1 5OP600   0.0000
    13 C15         18.1800    39.0670    52.6340 C.3          1 5OP600   0.0000
    14 C16         19.3830    38.9650    51.7600 C.3          1 5OP600   0.0000
    15 C17         19.6840    39.7070    50.5660 C.3          1 5OP600   0.0000
    16 C18         20.6390    40.9460    50.7370 C.3          1 5OP600   0.0000
    17 C19         22.1010    40.6360    50.4020 C.3          1 5OP600   0.0000
    18 C20         23.1500    41.7470    50.5070 C.2          1 5OP600   0.0000
    19 O3          24.3450    41.4990    50.8630 O.co2        1 5OP600   0.0000
    20 O4          14.4970    39.3720    58.4600 O.2          1 5OP600   0.0000
    21 O5          22.6740    42.8710    50.1790 O.co2        1 5OP600  -1.0000
    22 H1          13.7793    41.3483    59.7436 H            1 5OP600   0.0000
    23 H2          15.2980    41.9483    59.7619 H            1 5OP600   0.0000
    24 H3          14.2700    42.3645    58.5632 H            1 5OP600   0.0000
    25 H4          16.4547    41.5942    57.5368 H            1 5OP600   0.0000
    26 H5          16.1909    38.8930    56.5047 H            1 5OP600   0.0000
    27 H6          18.3189    40.7284    56.8737 H            1 5OP600   0.0000
    28 H7          18.6758    38.5822    55.2722 H            1 5OP600   0.0000
    29 H8          19.0318    37.7234    56.9719 H            1 5OP600   0.0000
    30 H9          20.5452    39.2629    54.8400 H            1 5OP600   0.0000
    31 H10         20.6440    40.1786    56.1885 H            1 5OP600   0.0000
    32 H11         17.4255    41.8404    54.9086 H            1 5OP600   0.0000
    33 H12         17.4176    40.9304    52.8096 H            1 5OP600   0.0000
    34 H13         16.6199    39.8059    53.6849 H            1 5OP600   0.0000
    35 H14         17.4403    38.7857    52.0226 H            1 5OP600   0.0000
    36 H15         18.3413    38.3512    53.3135 H            1 5OP600   0.0000
    37 H16         19.4049    38.0073    51.4731 H            1 5OP600   0.0000
    38 H17         20.1536    39.1477    52.3706 H            1 5OP600   0.0000
    39 H18         18.8198    40.0384    50.1873 H            1 5OP600   0.0000
    40 H19         20.1132    39.0788    49.9170 H            1 5OP600   0.0000
    41 H20         20.5899    41.2557    51.6866 H            1 5OP600   0.0000
    42 H21         20.3227    41.6763    50.1314 H            1 5OP600   0.0000
    43 H22         22.1197    40.3065    49.4580 H            1 5OP600   0.0000
    44 H23         22.3912    39.9027    51.0169 H            1 5OP600   0.0000
@<TRIPOS>BOND
     1    1    2       1
     2    2    3       1
     3    2   20       2
     4    3    4       2
     5    4    5       1
     6    5    6       1
     7    5   11       1
     8    6    7       1
     9    6    8       1
    10    8    9       1
    11    9   10       2
    12    9   11       1
    13   11   12       1
    14   12   13       1
    15   13   14       1
    16   14   15       1
    17   15   16       1
    18   16   17       1
    19   17   18       1
    20   18   19      ar
    21   18   21      ar
    22    1   22       1
    23    1   23       1
    24    1   24       1
    25    3   25       1
    26    4   26       1
    27    5   27       1
    28    6   28       1
    29    7   29       1
    30    8   30       1
    31    8   31       1
    32   11   32       1
    33   12   33       1
    34   12   34       1
    35   13   35       1
    36   13   36       1
    37   14   37       1
    38   14   38       1
    39   15   39       1
    40   15   40       1
    41   16   41       1
    42   16   42       1
    43   17   43       1
    44   17   44       1
@<TRIPOS>SUBSTRUCTURE
     1 5OP600      1 GROUP             4 A     5OP     0 **** 5OP A 600
