@<TRIPOS>MOLECULE
3cea_NAD_3_ligand
   70    74     1     0     0
SMALL
NO_CHARGES


@<TRIPOS>ATOM
     1 PA          -7.5470    50.9010    50.6410 P.3          1 NAD400   0.0000
     2 O1A         -7.6140    52.3020    51.1210 O.co2        1 NAD400   0.0000
     3 O2A         -8.7530    50.1490    51.0550 O.co2        1 NAD400  -1.0000
     4 O5B         -7.3760    50.8900    49.0400 O.3          1 NAD400   0.0000
     5 C5B         -7.4550    49.6970    48.2920 C.3          1 NAD400   0.0000
     6 C4B         -7.3250    50.0340    46.8080 C.3          1 NAD400   0.0000
     7 O4B         -7.0990    48.8640    46.0420 O.3          1 NAD400   0.0000
     8 C3B         -8.5810    50.6900    46.2550 C.3          1 NAD400   0.0000
     9 O3B         -8.1880    51.7850    45.4610 O.3          1 NAD400   0.0000
    10 C2B         -9.2300    49.6240    45.3960 C.3          1 NAD400   0.0000
    11 O2B         -9.8580    50.1670    44.2570 O.3          1 NAD400   0.0000
    12 C1B         -8.0610    48.7360    45.0070 C.3          1 NAD400   0.0000
    13 N9A         -8.4690    47.3280    44.8520 N.pl3        1 NAD400   0.0000
    14 C8A         -9.1410    46.5600    45.7670 C.2          1 NAD400   0.0000
    15 N7A         -9.3140    45.3250    45.2480 N.2          1 NAD400   0.0000
    16 C5A         -8.7670    45.2930    44.0120 C.ar         1 NAD400   0.0000
    17 C6A         -8.6710    44.2870    43.0540 C.ar         1 NAD400   0.0000
    18 N6A         -8.9050    43.0270    43.4040 N.pl3        1 NAD400   0.0000
    19 N1A         -8.0410    44.5530    41.8520 N.ar         1 NAD400   0.0000
    20 C2A         -7.5110    45.8050    41.6040 C.ar         1 NAD400   0.0000
    21 N3A         -7.6100    46.7970    42.5630 N.ar         1 NAD400   0.0000
    22 C4A         -8.2290    46.5470    43.7480 C.ar         1 NAD400   0.0000
    23 O3          -6.2020    50.1750    51.1660 O.3          1 NAD400   0.0000
    24 PN          -4.9080    51.0040    51.6620 P.3          1 NAD400   0.0000
    25 O1N         -4.5400    51.9900    50.6220 O.co2        1 NAD400   0.0000
    26 O2N         -5.1530    51.4380    53.0580 O.co2        1 NAD400  -1.0000
    27 O5D         -3.7560    49.8870    51.7280 O.3          1 NAD400   0.0000
    28 C5D         -3.4370    49.0580    50.6320 C.3          1 NAD400   0.0000
    29 C4D         -2.2990    48.1210    51.0310 C.3          1 NAD400   0.0000
    30 O4D         -1.2140    48.8660    51.5550 O.3          1 NAD400   0.0000
    31 C3D         -2.7420    47.1270    52.0960 C.3          1 NAD400   0.0000
    32 O3D         -2.3750    45.8230    51.7090 O.3          1 NAD400   0.0000
    33 C2D         -2.0060    47.5560    53.3510 C.3          1 NAD400   0.0000
    34 O2D         -1.5430    46.4570    54.0990 O.3          1 NAD400   0.0000
    35 C1D         -0.8440    48.3980    52.8390 C.3          1 NAD400   0.0000
    36 N1N         -0.5310    49.5010    53.7740 N.ar         1 NAD400   1.0000
    37 C2N          0.7770    49.7050    54.1430 C.ar         1 NAD400   0.0000
    38 C3N          1.1080    50.7300    55.0320 C.ar         1 NAD400   0.0000
    39 C7N          2.5440    51.0740    55.3120 C.2          1 NAD400   0.0000
    40 O7N          2.8770    51.6690    56.5450 O.2          1 NAD400   0.0000
    41 N7N          3.4770    50.8190    54.3950 N.am         1 NAD400   0.0000
    42 C4N          0.0970    51.5410    55.5470 C.ar         1 NAD400   0.0000
    43 C5N         -1.2280    51.3270    55.1700 C.ar         1 NAD400   0.0000
    44 C6N         -1.5300    50.2990    54.2800 C.ar         1 NAD400   0.0000
    45 H5B1        -8.3354    49.2534    48.4596 H            1 NAD400   0.0000
    46 H5B2        -6.7147    49.0815    48.5626 H            1 NAD400   0.0000
    47 H4B         -6.5526    50.6569    46.6837 H            1 NAD400   0.0000
    48 H3B         -9.1911    50.9798    46.9924 H            1 NAD400   0.0000
    49 H5          -8.8979    52.4887    45.4888 H            1 NAD400   0.0000
    50 H2B         -9.8910    49.1035    45.9366 H            1 NAD400   0.0000
    51 H7          -9.7418    51.1602    44.2540 H            1 NAD400   0.0000
    52 H1B         -7.6682    49.0634    44.1476 H            1 NAD400   0.0000
    53 H8A         -9.4513    46.8632    46.6680 H            1 NAD400   0.0000
    54 H6A1        -8.8383    42.2982    42.7226 H            1 NAD400   0.0000
    55 H6A2        -9.1478    42.8074    44.3489 H            1 NAD400   0.0000
    56 H2A         -7.0569    45.9934    40.7332 H            1 NAD400   0.0000
    57 H5D1        -3.1508    49.6219    49.8574 H            1 NAD400   0.0000
    58 H5D2        -4.2394    48.5199    50.3741 H            1 NAD400   0.0000
    59 H4D         -1.9907    47.6187    50.2231 H            1 NAD400   0.0000
    60 H3D         -3.7306    47.1836    52.2355 H            1 NAD400   0.0000
    61 H17         -2.8154    45.5968    50.8402 H            1 NAD400   0.0000
    62 H2D         -2.6067    48.1200    53.9176 H            1 NAD400   0.0000
    63 H19         -0.6224    46.2113    53.7955 H            1 NAD400   0.0000
    64 H1D         -0.0377    47.8134    52.7489 H            1 NAD400   0.0000
    65 H2N          1.4957    49.1163    53.7729 H            1 NAD400   0.0000
    66 H7N1         4.4334    51.0466    54.5781 H            1 NAD400   0.0000
    67 H7N2         3.2206    50.4001    53.5239 H            1 NAD400   0.0000
    68 H4N          0.3225    52.2759    56.1866 H            1 NAD400   0.0000
    69 H5N         -1.9559    51.9070    55.5357 H            1 NAD400   0.0000
    70 H6N         -2.4790    50.1403    54.0074 H            1 NAD400   0.0000
@<TRIPOS>BOND
     1    1    2      ar
     2    1    3      ar
     3    1    4       1
     4    1   23       1
     5    4    5       1
     6    5    6       1
     7    6    7       1
     8    6    8       1
     9    7   12       1
    10    8    9       1
    11    8   10       1
    12   10   11       1
    13   10   12       1
    14   12   13       1
    15   13   14       1
    16   13   22       1
    17   14   15       2
    18   15   16       1
    19   16   17      ar
    20   16   22      ar
    21   17   18       1
    22   17   19      ar
    23   19   20      ar
    24   20   21      ar
    25   21   22      ar
    26   23   24       1
    27   24   25      ar
    28   24   26      ar
    29   24   27       1
    30   27   28       1
    31   28   29       1
    32   29   30       1
    33   29   31       1
    34   30   35       1
    35   31   32       1
    36   31   33       1
    37   33   34       1
    38   33   35       1
    39   35   36       1
    40   36   37      ar
    41   36   44      ar
    42   37   38      ar
    43   38   39       1
    44   38   42      ar
    45   39   40       2
    46   39   41      am
    47   42   43      ar
    48   43   44      ar
    49   44   70       1
    50    5   45       1
    51    5   46       1
    52    6   47       1
    53    8   48       1
    54    9   49       1
    55   10   50       1
    56   11   51       1
    57   12   52       1
    58   14   53       1
    59   18   54       1
    60   18   55       1
    61   20   56       1
    62   43   69       1
    63   28   57       1
    64   28   58       1
    65   29   59       1
    66   31   60       1
    67   32   61       1
    68   33   62       1
    69   34   63       1
    70   35   64       1
    71   37   65       1
    72   41   66       1
    73   41   67       1
    74   42   68       1
@<TRIPOS>SUBSTRUCTURE
     1 NAD400      1 GROUP             4 C     NAD     0 **** NAD C 400
