@<TRIPOS>MOLECULE
4dqf_017_1_ligand
   75    78     1     0     0
SMALL
NO_CHARGES


@<TRIPOS>ATOM
     1 N1         -11.0200    -6.1230   -16.9510 N.pl3        1 017101   0.0000
     2 C2         -10.0660    -5.5220   -16.1960 C.ar         1 017101   0.0000
     3 C3         -10.2230    -4.1760   -15.8080 C.ar         1 017101   0.0000
     4 C4          -9.2680    -3.5610   -15.0140 C.ar         1 017101   0.0000
     5 C5          -8.1170    -4.2570   -14.6060 C.ar         1 017101   0.0000
     6 C6          -7.9800    -5.6190   -14.9760 C.ar         1 017101   0.0000
     7 C7          -8.9490    -6.2530   -15.7690 C.ar         1 017101   0.0000
     8 S8          -7.0070    -3.5050   -13.6800 S.o2         1 017101   0.0000
     9 O9          -7.6440    -2.3850   -13.0530 O.2          1 017101   0.0000
    10 O10         -6.4210    -4.4670   -12.8060 O.2          1 017101   0.0000
    11 N11         -5.7810    -2.8870   -14.6020 N.3          1 017101   0.0000
    12 C12         -5.1050    -3.9010   -15.4410 C.3          1 017101   0.0000
    13 C13         -3.6100    -3.6090   -15.6430 C.3          1 017101   0.0000
    14 C14         -2.8430    -3.4920   -14.3210 C.3          1 017101   0.0000
    15 C15         -2.9850    -4.7020   -16.5180 C.3          1 017101   0.0000
    16 C16         -6.1370    -1.6730   -15.3790 C.3          1 017101   0.0000
    17 C17         -5.2480    -0.5190   -14.8920 C.3          1 017101   0.0000
    18 O18         -5.3580     0.6320   -15.7680 O.3          1 017101   0.0000
    19 C19         -5.5080    -0.0990   -13.4240 C.3          1 017101   0.0000
    20 N20         -4.4200     0.7420   -12.9770 N.am         1 017101   0.0000
    21 C21         -3.4860     0.3740   -12.1230 C.2          1 017101   0.0000
    22 O22         -3.3930    -0.7010   -11.5560 O.2          1 017101   0.0000
    23 O23         -2.4940     1.3960   -11.9470 O.3          1 017101   0.0000
    24 C24         -1.6070     1.2390   -10.8520 C.3          1 017101   0.0000
    25 C25         -0.2860     1.8080   -11.3140 C.3          1 017101   0.0000
    26 O26         -0.4920     3.2140   -11.1680 O.3          1 017101   0.0000
    27 C27         -1.3750     3.4670   -10.0740 C.3          1 017101   0.0000
    28 O28         -2.4040     4.3680   -10.4450 O.3          1 017101   0.0000
    29 C29         -3.6970     3.7970   -10.2810 C.3          1 017101   0.0000
    30 C30         -3.4960     2.4490    -9.5850 C.3          1 017101   0.0000
    31 C31         -2.0270     2.1410    -9.7080 C.3          1 017101   0.0000
    32 C32         -6.7930     0.6980   -13.2290 C.3          1 017101   0.0000
    33 C33         -7.1260     0.1440   -10.7810 C.ar         1 017101   0.0000
    34 C34         -7.2630     0.5370    -9.4410 C.ar         1 017101   0.0000
    35 C35         -7.2280     1.8950    -9.1020 C.ar         1 017101   0.0000
    36 C36         -7.0790     2.8610   -10.0980 C.ar         1 017101   0.0000
    37 C37         -6.9250     2.4750   -11.4260 C.ar         1 017101   0.0000
    38 C38         -6.9630     1.1150   -11.7780 C.ar         1 017101   0.0000
    39 H1         -10.9109    -7.0778   -17.2275 H            1 017101   0.0000
    40 H2         -11.8322    -5.6111   -17.2309 H            1 017101   0.0000
    41 H3         -11.0273    -3.6624   -16.1071 H            1 017101   0.0000
    42 H4          -9.3992    -2.6117   -14.7282 H            1 017101   0.0000
    43 H5          -7.1812    -6.1354   -14.6674 H            1 017101   0.0000
    44 H6          -8.8438    -7.2137   -16.0260 H            1 017101   0.0000
    45 H7          -5.5498    -3.9224   -16.3364 H            1 017101   0.0000
    46 H8          -5.1991    -4.7938   -15.0006 H            1 017101   0.0000
    47 H9          -3.5269    -2.7384   -16.1278 H            1 017101   0.0000
    48 H10         -1.8795    -3.3025   -14.5103 H            1 017101   0.0000
    49 H11         -3.2286    -2.7470   -13.7767 H            1 017101   0.0000
    50 H12         -2.9205    -4.3502   -13.8136 H            1 017101   0.0000
    51 H13         -2.0123    -4.5095   -16.6478 H            1 017101   0.0000
    52 H14         -3.0923    -5.5896   -16.0700 H            1 017101   0.0000
    53 H15         -3.4428    -4.7198   -17.4069 H            1 017101   0.0000
    54 H16         -7.0995    -1.4456   -15.2308 H            1 017101   0.0000
    55 H17         -5.9789    -1.8352   -16.3530 H            1 017101   0.0000
    56 H18         -4.3012    -0.8367   -14.9428 H            1 017101   0.0000
    57 H19         -6.2704     0.6539   -16.1767 H            1 017101   0.0000
    58 H20         -5.5428    -0.9184   -12.8519 H            1 017101   0.0000
    59 H21         -4.3727     1.6715   -13.3428 H            1 017101   0.0000
    60 H22         -1.5261     0.2837   -10.5675 H            1 017101   0.0000
    61 H23         -0.1009     1.5662   -12.2665 H            1 017101   0.0000
    62 H24          0.4666     1.4905   -10.7371 H            1 017101   0.0000
    63 H25         -0.8641     3.8280    -9.2938 H            1 017101   0.0000
    64 H26         -4.1307     3.6637   -11.1722 H            1 017101   0.0000
    65 H27         -4.2687     4.3939    -9.7181 H            1 017101   0.0000
    66 H28         -4.0396     1.7402   -10.0345 H            1 017101   0.0000
    67 H29         -3.7597     2.5110    -8.6224 H            1 017101   0.0000
    68 H30         -1.6657     1.7994    -8.8403 H            1 017101   0.0000
    69 H31         -7.5722     0.1328   -13.4998 H            1 017101   0.0000
    70 H32         -6.7598     1.5166   -13.8024 H            1 017101   0.0000
    71 H33         -7.1446    -0.8259   -11.0237 H            1 017101   0.0000
    72 H34         -7.3857    -0.1531    -8.7278 H            1 017101   0.0000
    73 H35         -7.3099     2.1730    -8.1449 H            1 017101   0.0000
    74 H36         -7.0829     3.8316    -9.8571 H            1 017101   0.0000
    75 H37         -6.7867     3.1685   -12.1331 H            1 017101   0.0000
@<TRIPOS>BOND
     1    1    2       1
     2    2    3      ar
     3    2    7      ar
     4    3    4      ar
     5    4    5      ar
     6    5    6      ar
     7    5    8       1
     8    6    7      ar
     9    8    9       2
    10    8   10       2
    11    8   11       1
    12   11   12       1
    13   11   16       1
    14   12   13       1
    15   13   14       1
    16   13   15       1
    17   16   17       1
    18   17   18       1
    19   17   19       1
    20   19   20       1
    21   19   32       1
    22   20   21      am
    23   21   22       2
    24   21   23       1
    25   23   24       1
    26   24   25       1
    27   24   31       1
    28   25   26       1
    29   26   27       1
    30   27   28       1
    31   27   31       1
    32   28   29       1
    33   29   30       1
    34   30   31       1
    35   32   38       1
    36   33   34      ar
    37   33   38      ar
    38   34   35      ar
    39   35   36      ar
    40   36   37      ar
    41   37   38      ar
    42    1   39       1
    43    1   40       1
    44    3   41       1
    45    4   42       1
    46    6   43       1
    47    7   44       1
    48   12   45       1
    49   12   46       1
    50   13   47       1
    51   14   48       1
    52   14   49       1
    53   14   50       1
    54   15   51       1
    55   15   52       1
    56   15   53       1
    57   16   54       1
    58   16   55       1
    59   17   56       1
    60   18   57       1
    61   19   58       1
    62   20   59       1
    63   24   60       1
    64   25   61       1
    65   25   62       1
    66   27   63       1
    67   29   64       1
    68   29   65       1
    69   30   66       1
    70   30   67       1
    71   31   68       1
    72   32   69       1
    73   32   70       1
    74   33   71       1
    75   34   72       1
    76   35   73       1
    77   36   74       1
    78   37   75       1
@<TRIPOS>SUBSTRUCTURE
     1 017101      1 GROUP             4 B     017     0 **** 017 B 101
