@<TRIPOS>MOLECULE
4dsj_DGT_1_ligand
   43    45     1     0     0
SMALL
NO_CHARGES


@<TRIPOS>ATOM
     1 PG          29.8660    29.8310    70.5460 P.3          1 DGT1001   0.0000
     2 O1G         30.9810    30.3050    71.4360 O.co2        1 DGT1001   0.0000
     3 O2G         28.5040    29.8050    71.1820 O.co2        1 DGT1001  -1.0000
     4 O3G         29.8620    30.4670    69.1830 O.co2        1 DGT1001  -1.0000
     5 O3B         30.1970    28.2740    70.2970 O.3          1 DGT1001   0.0000
     6 PB          29.3700    27.3790    69.2380 P.3          1 DGT1001   0.0000
     7 O1B         29.2780    25.9760    69.7790 O.co2        1 DGT1001   0.0000
     8 O2B         28.0850    28.0820    68.8550 O.co2        1 DGT1001  -1.0000
     9 O3A         30.3870    27.3440    67.9800 O.3          1 DGT1001   0.0000
    10 PA          30.0500    27.9270    66.5070 P.3          1 DGT1001   0.0000
    11 O1A         29.4580    29.3070    66.6700 O.co2        1 DGT1001   0.0000
    12 O2A         31.2640    27.7560    65.6280 O.co2        1 DGT1001  -1.0000
    13 O5'         28.9050    26.9460    65.9490 O.3          1 DGT1001   0.0000
    14 C5'         29.0510    25.5430    66.0900 C.3          1 DGT1001   0.0000
    15 C4'         29.2720    24.9170    64.7290 C.3          1 DGT1001   0.0000
    16 O4'         30.2560    25.6250    63.9680 O.3          1 DGT1001   0.0000
    17 C3'         29.7860    23.5060    64.9170 C.3          1 DGT1001   0.0000
    18 O3'         28.7230    22.5960    64.6390 O.3          1 DGT1001   0.0000
    19 C2'         30.9360    23.3540    63.9360 C.3          1 DGT1001   0.0000
    20 C1'         31.0720    24.7050    63.2290 C.3          1 DGT1001   0.0000
    21 N9          32.4920    25.1620    63.1430 N.pl3        1 DGT1001   0.0000
    22 C8          32.9240    26.4330    63.3210 C.2          1 DGT1001   0.0000
    23 N7          34.2670    26.5330    63.1760 N.2          1 DGT1001   0.0000
    24 C5          34.7190    25.2950    62.8870 C.2          1 DGT1001   0.0000
    25 C6          36.0400    24.6740    62.6050 C.2          1 DGT1001   0.0000
    26 O6          37.0780    25.3660    62.6080 O.2          1 DGT1001   0.0000
    27 N1          36.1010    23.3560    62.3490 N.2          1 DGT1001   0.0000
    28 C2          35.0030    22.5810    62.3380 C.2          1 DGT1001   0.0000
    29 N2          35.1670    21.2640    62.0720 N.pl3        1 DGT1001   0.0000
    30 N3          33.7540    23.0740    62.5860 N.pl3        1 DGT1001   0.0000
    31 C4          33.5520    24.3950    62.8600 C.2          1 DGT1001   0.0000
    32 H5'1        28.2231    25.1618    66.5014 H            1 DGT1001   0.0000
    33 H5'2        29.8359    25.3473    66.6779 H            1 DGT1001   0.0000
    34 H4'         28.4087    24.8957    64.2248 H            1 DGT1001   0.0000
    35 H3'         30.1124    23.3796    65.8537 H            1 DGT1001   0.0000
    36 H5          28.7340    22.3572    63.6680 H            1 DGT1001   0.0000
    37 H2'1        30.7333    22.6339    63.2724 H            1 DGT1001   0.0000
    38 H2'2        31.7804    23.1305    64.4229 H            1 DGT1001   0.0000
    39 H1'         30.7044    24.6216    62.3028 H            1 DGT1001   0.0000
    40 H9          32.3242    27.2043    63.5337 H            1 DGT1001   0.0000
    41 H10         34.3741    20.6549    62.0548 H            1 DGT1001   0.0000
    42 H11         36.0810    20.9002    61.8927 H            1 DGT1001   0.0000
    43 H12         32.9703    22.4532    62.5663 H            1 DGT1001   0.0000
@<TRIPOS>BOND
     1    1    2      ar
     2    1    3      ar
     3    1    4      ar
     4    1    5       1
     5    5    6       1
     6    6    7      ar
     7    6    8      ar
     8    6    9       1
     9    9   10       1
    10   10   11      ar
    11   10   12      ar
    12   10   13       1
    13   13   14       1
    14   14   15       1
    15   15   16       1
    16   15   17       1
    17   16   20       1
    18   17   18       1
    19   17   19       1
    20   19   20       1
    21   20   21       1
    22   21   22       1
    23   21   31       1
    24   22   23       2
    25   23   24       1
    26   24   25       1
    27   24   31       2
    28   25   26       2
    29   25   27       1
    30   27   28       2
    31   28   29       1
    32   28   30       1
    33   30   31       1
    34   29   42       1
    35   29   41       1
    36   20   39       1
    37   22   40       1
    38   14   32       1
    39   14   33       1
    40   15   34       1
    41   17   35       1
    42   18   36       1
    43   19   37       1
    44   19   38       1
    45   30   43       1
@<TRIPOS>SUBSTRUCTURE
     1 DGT1001     1 GROUP             4 A     DGT     0 **** DGT A1001
