@<TRIPOS>MOLECULE
2eva_ADN_1_ligand
   32    34     1     0     0
SMALL
NO_CHARGES


@<TRIPOS>ATOM
     1 O5'         11.2630    53.9360    14.3070 O.3          1 ADN498   0.0000
     2 C5'         12.4980    53.9590    13.5640 C.3          1 ADN498   0.0000
     3 C4'         13.6960    53.8370    14.5780 C.3          1 ADN498   0.0000
     4 O4'         13.2370    54.8490    15.5000 O.3          1 ADN498   0.0000
     5 C3'         13.5370    52.6200    15.4960 C.3          1 ADN498   0.0000
     6 O3'         14.3530    51.5620    14.9470 O.3          1 ADN498   0.0000
     7 C2'         14.0170    53.0900    16.8810 C.3          1 ADN498   0.0000
     8 O2'         15.2270    52.4890    17.3520 O.3          1 ADN498   0.0000
     9 C1'         14.0310    54.6180    16.6440 C.3          1 ADN498   0.0000
    10 N9          13.5200    55.5040    17.7150 N.pl3        1 ADN498   0.0000
    11 C8          12.1920    56.0280    17.7770 C.2          1 ADN498   0.0000
    12 N7          11.9350    56.7770    18.8030 N.2          1 ADN498   0.0000
    13 C5          13.1340    56.7870    19.5010 C.ar         1 ADN498   0.0000
    14 C6          13.5510    57.4210    20.7490 C.ar         1 ADN498   0.0000
    15 N6          12.7160    58.1790    21.4640 N.pl3        1 ADN498   0.0000
    16 N1          14.8810    57.2190    21.1970 N.ar         1 ADN498   0.0000
    17 C2          15.7710    56.4290    20.4690 C.ar         1 ADN498   0.0000
    18 N3          15.4720    55.7820    19.2740 N.ar         1 ADN498   0.0000
    19 C4          14.1430    55.9990    18.8500 C.ar         1 ADN498   0.0000
    20 H5'         10.5424    53.5323    13.7434 H            1 ADN498   0.0000
    21 H5'1        12.5709    54.8185    13.0581 H            1 ADN498   0.0000
    22 H5'2        12.5198    53.1919    12.9228 H            1 ADN498   0.0000
    23 H4'         14.6086    53.9779    14.1942 H            1 ADN498   0.0000
    24 H3'         12.5789    52.3364    15.5365 H            1 ADN498   0.0000
    25 H6          14.0420    51.3475    14.0211 H            1 ADN498   0.0000
    26 H2'         13.2948    52.8875    17.5423 H            1 ADN498   0.0000
    27 H8          15.8071    52.2525    16.5725 H            1 ADN498   0.0000
    28 H1'         14.9692    54.8924    16.4332 H            1 ADN498   0.0000
    29 H10         11.5070    55.8301    17.0759 H            1 ADN498   0.0000
    30 H11         13.0283    58.6011    22.3151 H            1 ADN498   0.0000
    31 H12         11.7783    58.3246    21.1484 H            1 ADN498   0.0000
    32 H13         16.6954    56.3192    20.8343 H            1 ADN498   0.0000
@<TRIPOS>BOND
     1    1    2       1
     2    2    3       1
     3    3    4       1
     4    3    5       1
     5    4    9       1
     6    5    6       1
     7    5    7       1
     8    7    8       1
     9    7    9       1
    10    9   10       1
    11   10   11       1
    12   10   19       1
    13   11   12       2
    14   12   13       1
    15   13   14      ar
    16   13   19      ar
    17   14   15       1
    18   14   16      ar
    19   16   17      ar
    20   17   18      ar
    21   18   19      ar
    22    1   20       1
    23    2   21       1
    24    2   22       1
    25    3   23       1
    26    5   24       1
    27    6   25       1
    28    7   26       1
    29    8   27       1
    30    9   28       1
    31   11   29       1
    32   15   30       1
    33   15   31       1
    34   17   32       1
@<TRIPOS>SUBSTRUCTURE
     1 ADN498      1 GROUP             4 A     ADN     0 **** ADN A 498
