@<TRIPOS>MOLECULE
1tkb_N1T_1_ligand
   43    44     1     0     0
SMALL
NO_CHARGES


@<TRIPOS>ATOM
     1 C1'         -3.3420    60.8180    20.0020 C.ar         1 N1T681   0.0000
     2 C2'         -2.3030    59.8280    20.1920 C.ar         1 N1T681   0.0000
     3 CM2         -0.9790    60.2700    20.6550 C.3          1 N1T681   0.0000
     4 N3'         -2.6320    58.5300    20.1390 N.ar         1 N1T681   0.0000
     5 C4'         -3.9140    58.1540    19.8090 C.ar         1 N1T681   0.0000
     6 N4'         -4.1040    56.8390    19.7270 N.pl3        1 N1T681   0.0000
     7 C5'         -4.8910    59.0870    19.3250 C.ar         1 N1T681   0.0000
     8 C6'         -4.6620    60.3770    19.5560 C.ar         1 N1T681   0.0000
     9 C7'         -6.1760    58.6820    18.6790 C.3          1 N1T681   0.0000
    10 N3          -5.8980    58.1280    17.2980 N.2          1 N1T681   1.0000
    11 C2          -5.7970    56.8270    17.0490 C.2          1 N1T681   0.0000
    12 S1          -5.3960    56.4740    15.4640 S.3          1 N1T681   0.0000
    13 C5          -5.3900    58.1350    15.1120 C.2          1 N1T681   0.0000
    14 C4          -5.7140    58.8870    16.2210 C.2          1 N1T681   0.0000
    15 CM4         -5.8330    60.3870    16.2890 C.3          1 N1T681   0.0000
    16 C6          -5.1060    58.5940    13.7120 C.3          1 N1T681   0.0000
    17 C7          -5.6030    57.5710    12.7420 C.3          1 N1T681   0.0000
    18 O7          -4.6080    57.5850    11.7280 O.3          1 N1T681   0.0000
    19 PA          -3.7830    56.3020    11.3420 P.3          1 N1T681   0.0000
    20 O1A         -2.5320    56.0480    12.1020 O.co2        1 N1T681   0.0000
    21 O2A         -3.5020    56.6650     9.9050 O.co2        1 N1T681  -1.0000
    22 O3A         -4.8120    55.1120    11.3510 O.3          1 N1T681   0.0000
    23 PB          -5.5270    54.3440    10.1980 P.3          1 N1T681   0.0000
    24 O1B         -4.6920    54.6320     8.9840 O.co2        1 N1T681   0.0000
    25 O2B         -6.8630    54.9420    10.0820 O.co2        1 N1T681  -1.0000
    26 O3B         -5.5250    52.9780    10.6630 O.co2        1 N1T681  -1.0000
    27 H1'         -3.1598    61.7863    20.1729 H            1 N1T681   0.0000
    28 HM21        -0.3735    59.4785    20.7379 H            1 N1T681   0.0000
    29 HM22        -0.5942    60.9165    19.9962 H            1 N1T681   0.0000
    30 HM23        -1.0690    60.7156    21.5457 H            1 N1T681   0.0000
    31 H4'1        -5.0065    56.4779    19.4922 H            1 N1T681   0.0000
    32 H4'2        -3.3443    56.2123    19.9002 H            1 N1T681   0.0000
    33 H6'         -5.3939    61.0456    19.4243 H            1 N1T681   0.0000
    34 H7'1        -6.7759    59.4785    18.6034 H            1 N1T681   0.0000
    35 H7'2        -6.6216    57.9806    19.2354 H            1 N1T681   0.0000
    36 H10         -5.9468    56.1242    17.7444 H            1 N1T681   0.0000
    37 HM41        -5.6612    60.7764    15.3841 H            1 N1T681   0.0000
    38 HM42        -6.7541    60.6350    16.5892 H            1 N1T681   0.0000
    39 HM43        -5.1628    60.7454    16.9389 H            1 N1T681   0.0000
    40 H14         -4.1203    58.7141    13.5940 H            1 N1T681   0.0000
    41 H15         -5.5700    59.4641    13.5458 H            1 N1T681   0.0000
    42 H16         -6.4961    57.8289    12.3733 H            1 N1T681   0.0000
    43 H17         -5.6670    56.6699    13.1708 H            1 N1T681   0.0000
@<TRIPOS>BOND
     1    1    2      ar
     2    1    8      ar
     3    2    3       1
     4    2    4      ar
     5    4    5      ar
     6    5    6       1
     7    5    7      ar
     8    7    8      ar
     9    7    9       1
    10    9   10       1
    11   10   11       2
    12   10   14       1
    13   11   12       1
    14   12   13       1
    15   13   14       2
    16   13   16       1
    17   14   15       1
    18   16   17       1
    19   17   18       1
    20   18   19       1
    21   19   20      ar
    22   19   21      ar
    23   19   22       1
    24   22   23       1
    25   23   24      ar
    26   23   25      ar
    27   23   26      ar
    28    1   27       1
    29    3   28       1
    30    3   29       1
    31    3   30       1
    32    6   31       1
    33    6   32       1
    34    8   33       1
    35    9   34       1
    36    9   35       1
    37   11   36       1
    38   15   37       1
    39   15   38       1
    40   15   39       1
    41   16   40       1
    42   16   41       1
    43   17   42       1
    44   17   43       1
@<TRIPOS>SUBSTRUCTURE
     1 N1T681      1 GROUP             4 A     N1T     0 **** N1T A 681
