@<TRIPOS>MOLECULE
4rel_KMP_1_ligand
   31    33     1     0     0
SMALL
NO_CHARGES


@<TRIPOS>ATOM
     1 C1          56.5370    -5.6200    16.4780 C.ar         1 KMP1001   0.0000
     2 C2          55.8480    -4.6180    17.1400 C.ar         1 KMP1001   0.0000
     3 C3          54.5200    -4.2110    16.6320 C.ar         1 KMP1001   0.0000
     4 C4          53.9650    -4.8850    15.4410 C.ar         1 KMP1001   0.0000
     5 C5          54.7340    -5.8760    14.8430 C.ar         1 KMP1001   0.0000
     6 C6          55.9860    -6.2310    15.3530 C.ar         1 KMP1001   0.0000
     7 C9          53.7360    -3.1470    17.3010 C.2          1 KMP1001   0.0000
     8 C10         52.4170    -2.8010    16.7240 C.2          1 KMP1001   0.0000
     9 C11         51.9470    -3.5420    15.5080 C.2          1 KMP1001   0.0000
    10 C14         50.6270    -3.2600    14.8620 C.ar         1 KMP1001   0.0000
    11 C15         49.8750    -2.1280    15.1700 C.ar         1 KMP1001   0.0000
    12 C16         48.6550    -1.9020    14.5520 C.ar         1 KMP1001   0.0000
    13 C17         48.1720    -2.8090    13.6220 C.ar         1 KMP1001   0.0000
    14 C18         48.9150    -3.9390    13.3060 C.ar         1 KMP1001   0.0000
    15 C19         50.1390    -4.1600    13.9230 C.ar         1 KMP1001   0.0000
    16 O12         52.7320    -4.5300    14.9450 O.2          1 KMP1001   0.0000
    17 O13         54.1860    -2.5660    18.3170 O.2          1 KMP1001   0.0000
    18 O24         46.9700    -2.5840    13.0210 O.3          1 KMP1001   0.0000
    19 O27         51.6820    -1.8310    17.3350 O.3          1 KMP1001   0.0000
    20 O29         56.6950    -7.2090    14.7250 O.3          1 KMP1001   0.0000
    21 O30         56.3680    -4.0070    18.2400 O.3          1 KMP1001   0.0000
    22 H1          57.4358    -5.9072    16.8092 H            1 KMP1001   0.0000
    23 H2          54.3847    -6.3445    14.0316 H            1 KMP1001   0.0000
    24 H3          50.2185    -1.4728    15.8429 H            1 KMP1001   0.0000
    25 H4          48.1238    -1.0852    14.7770 H            1 KMP1001   0.0000
    26 H5          48.5684    -4.5935    12.6341 H            1 KMP1001   0.0000
    27 H6          50.6730    -4.9727    13.6898 H            1 KMP1001   0.0000
    28 H7          46.6171    -3.2354    12.3493 H            1 KMP1001   0.0000
    29 H8          52.0369    -1.3738    18.1505 H            1 KMP1001   0.0000
    30 H9          56.3171    -7.6597    13.9162 H            1 KMP1001   0.0000
    31 H10         55.8522    -3.2856    18.7020 H            1 KMP1001   0.0000
@<TRIPOS>BOND
     1    1    2      ar
     2    1    6      ar
     3    2    3      ar
     4    2   21       1
     5    3    4      ar
     6    3    7       1
     7    4    5      ar
     8    4   16       1
     9    5    6      ar
    10    6   20       1
    11    7    8       1
    12    7   17       2
    13    8    9       2
    14    8   19       1
    15    9   10       1
    16    9   16       1
    17   10   11      ar
    18   10   15      ar
    19   11   12      ar
    20   12   13      ar
    21   13   14      ar
    22   13   18       1
    23   14   15      ar
    24    1   22       1
    25    5   23       1
    26   11   24       1
    27   12   25       1
    28   14   26       1
    29   15   27       1
    30   18   28       1
    31   19   29       1
    32   20   30       1
    33   21   31       1
@<TRIPOS>SUBSTRUCTURE
     1 KMP1001     1 GROUP             4 A     KMP     0 **** KMP A1001
