@<TRIPOS>MOLECULE
5ii2_LU2_2_ligand
   31    33     1     0     0
SMALL
NO_CHARGES


@<TRIPOS>ATOM
     1 C1           9.6510   -25.4560   -26.0960 C.ar         1 LU2802   0.0000
     2 O1          10.3080   -26.9890   -24.4210 O.3          1 LU2802   0.0000
     3 C2          10.2780   -26.6430   -25.7380 C.ar         1 LU2802   0.0000
     4 O2          11.3290   -27.8460   -29.0380 O.3          1 LU2802   0.0000
     5 C3          10.8570   -27.4570   -26.7310 C.ar         1 LU2802   0.0000
     6 O3          10.6320   -26.0280   -30.7070 O.2          1 LU2802   0.0000
     7 C4          10.7970   -27.0560   -28.0760 C.ar         1 LU2802   0.0000
     8 O4           8.9460   -23.8910   -27.7280 O.2          1 LU2802   0.0000
     9 C5          10.1550   -25.8630   -28.4400 C.ar         1 LU2802   0.0000
    10 O5           7.7090   -19.7160   -31.8950 O.3          1 LU2802   0.0000
    11 C6           9.5880   -25.0680   -27.4330 C.ar         1 LU2802   0.0000
    12 O6           6.7970   -18.2800   -29.8480 O.3          1 LU2802   0.0000
    13 C7          10.0900   -25.4050   -29.7820 C.2          1 LU2802   0.0000
    14 C8           9.5020   -24.1700   -30.0580 C.2          1 LU2802   0.0000
    15 C9           8.8750   -23.4330   -29.0280 C.2          1 LU2802   0.0000
    16 C10          8.3180   -22.1470   -29.2290 C.ar         1 LU2802   0.0000
    17 C11          8.2900   -21.5540   -30.5020 C.ar         1 LU2802   0.0000
    18 C12          7.7510   -20.2770   -30.6740 C.ar         1 LU2802   0.0000
    19 C13          7.2660   -19.5280   -29.5890 C.ar         1 LU2802   0.0000
    20 C14          7.2900   -20.0830   -28.3060 C.ar         1 LU2802   0.0000
    21 C15          7.8310   -21.3780   -28.1380 C.ar         1 LU2802   0.0000
    22 H1           9.2427   -24.8769   -25.3904 H            1 LU2802   0.0000
    23 H2           9.8849   -26.3937   -23.7379 H            1 LU2802   0.0000
    24 H3          11.2879   -27.5634   -29.9964 H            1 LU2802   0.0000
    25 H4          11.3074   -28.3139   -26.4804 H            1 LU2802   0.0000
    26 H5           8.0648   -20.2133   -32.6862 H            1 LU2802   0.0000
    27 H6           6.4430   -17.7144   -29.1032 H            1 LU2802   0.0000
    28 H7           9.5244   -23.8049   -30.9887 H            1 LU2802   0.0000
    29 H8           8.6579   -22.0487   -31.2893 H            1 LU2802   0.0000
    30 H9           6.9318   -19.5742   -27.5232 H            1 LU2802   0.0000
    31 H10          7.8725   -21.7671   -27.2178 H            1 LU2802   0.0000
@<TRIPOS>BOND
     1    1    3      ar
     2    1   11      ar
     3    2    3       1
     4    3    5      ar
     5    4    7       1
     6    5    7      ar
     7    6   13       2
     8    7    9      ar
     9    8   11       1
    10    8   15       1
    11    9   11      ar
    12    9   13       1
    13   10   18       1
    14   12   19       1
    15   13   14       1
    16   14   15       2
    17   15   16       1
    18   16   17      ar
    19   16   21      ar
    20   17   18      ar
    21   18   19      ar
    22   19   20      ar
    23   20   21      ar
    24    1   22       1
    25    2   23       1
    26    4   24       1
    27    5   25       1
    28   10   26       1
    29   12   27       1
    30   14   28       1
    31   17   29       1
    32   20   30       1
    33   21   31       1
@<TRIPOS>SUBSTRUCTURE
     1 LU2802      1 GROUP             4 B     LU2     0 **** LU2 B 802
