@<TRIPOS>MOLECULE
5cvc_PLP_1_ligand
   24    24     1     0     0
SMALL
NO_CHARGES


@<TRIPOS>ATOM
     1 N1         -17.6250   -29.9130    -1.9270 N.ar         1 PLP402   0.0000
     2 C2         -16.5480   -30.4750    -1.3340 C.ar         1 PLP402   0.0000
     3 C2A        -16.3830   -30.4230     0.1590 C.3          1 PLP402   0.0000
     4 C3         -15.5010   -31.0910    -2.1840 C.ar         1 PLP402   0.0000
     5 O3         -14.3950   -31.6670    -1.6360 O.3          1 PLP402  -1.0000
     6 C4         -15.7270   -31.0860    -3.6460 C.ar         1 PLP402   0.0000
     7 C4A        -14.7600   -31.6830    -4.5930 C.3          1 PLP402   0.0000
     8 C5         -16.9460   -30.4800    -4.1670 C.ar         1 PLP402   0.0000
     9 C6         -17.8310   -29.9160    -3.2620 C.ar         1 PLP402   0.0000
    10 C5A        -17.1970   -30.4400    -5.6560 C.3          1 PLP402   0.0000
    11 O4P        -17.3640   -31.7280    -6.2750 O.3          1 PLP402   0.0000
    12 P          -17.3270   -31.8700    -7.8870 P.3          1 PLP402   0.0000
    13 O1P        -18.2750   -30.7980    -8.3960 O.co2        1 PLP402   0.0000
    14 O2P        -17.7000   -33.3100    -8.1750 O.co2        1 PLP402  -1.0000
    15 O3P        -15.9350   -31.5010    -8.3150 O.co2        1 PLP402  -1.0000
    16 H2A1       -15.5350   -30.8861     0.4170 H            1 PLP402   0.0000
    17 H2A2       -16.3460   -29.4692     0.4573 H            1 PLP402   0.0000
    18 H2A3       -17.1582   -30.8791     0.5961 H            1 PLP402   0.0000
    19 H4A1       -15.0988   -31.5751    -5.5277 H            1 PLP402   0.0000
    20 H4A2       -13.8773   -31.2218    -4.5031 H            1 PLP402   0.0000
    21 H4A3       -14.6503   -32.6557    -4.3885 H            1 PLP402   0.0000
    22 H7         -18.6640   -29.4898    -3.6149 H            1 PLP402   0.0000
    23 H5A1       -16.4198   -29.9847    -6.0903 H            1 PLP402   0.0000
    24 H5A2       -18.0279   -29.9074    -5.8171 H            1 PLP402   0.0000
@<TRIPOS>BOND
     1    1    2      ar
     2    1    9      ar
     3    2    3       1
     4    2    4      ar
     5    4    5       1
     6    4    6      ar
     7    6    7       1
     8    6    8      ar
     9    8    9      ar
    10    8   10       1
    11   10   11       1
    12   11   12       1
    13   12   13      ar
    14   12   14      ar
    15   12   15      ar
    16    3   16       1
    17    3   17       1
    18    3   18       1
    19   10   24       1
    20    7   19       1
    21    7   20       1
    22    7   21       1
    23    9   22       1
    24   10   23       1
@<TRIPOS>SUBSTRUCTURE
     1 PLP402      1 GROUP             4 A     PLP     0 **** PLP A 402
