@<TRIPOS>MOLECULE
1rdf_ESA_1_ligand
    9     8     1     0     0
SMALL
NO_CHARGES


@<TRIPOS>ATOM
     1 C1          69.5490    70.3740     2.6700 C.2          1 ESA500   0.0000
     2 C2          68.3260    70.6750     2.5840 C.2          1 ESA500   0.0000
     3 S           67.6580    71.6740     1.3360 S.o2         1 ESA500   0.0000
     4 O1          66.2310    71.5700     1.5520 O.co2        1 ESA500   0.0000
     5 O2          68.2260    72.9710     1.5990 O.co2        1 ESA500   0.0000
     6 O3          68.1280    71.0860     0.1140 O.co2        1 ESA500  -1.0000
     7 H1          69.8692    69.7916     3.4172 H            1 ESA500   0.0000
     8 H2          70.1975    70.7180     1.9909 H            1 ESA500   0.0000
     9 H3          67.7042    70.3145     3.2793 H            1 ESA500   0.0000
@<TRIPOS>BOND
     1    1    2       2
     2    2    3       1
     3    3    4      ar
     4    3    5      ar
     5    3    6      ar
     6    1    7       1
     7    1    8       1
     8    2    9       1
@<TRIPOS>SUBSTRUCTURE
     1 ESA500      1 GROUP             4 A     ESA     0 **** ESA A 500
