@<TRIPOS>MOLECULE
2v6g_NAP_1_ligand
   73    77     1     0     0
SMALL
NO_CHARGES


@<TRIPOS>ATOM
     1 PA          -5.5630   -26.5400    31.7300 P.3          1 NAP1390   0.0000
     2 O1A         -6.9230   -26.0370    31.4730 O.co2        1 NAP1390   0.0000
     3 O2A         -4.4820   -25.7480    31.1170 O.co2        1 NAP1390  -1.0000
     4 O5B         -5.3920   -28.0770    31.3710 O.3          1 NAP1390   0.0000
     5 C5B         -6.3270   -29.0210    31.8280 C.3          1 NAP1390   0.0000
     6 C4B         -5.8230   -30.3820    31.3810 C.3          1 NAP1390   0.0000
     7 O4B         -6.5640   -31.4260    31.9830 O.3          1 NAP1390   0.0000
     8 C3B         -5.9460   -30.5760    29.8620 C.3          1 NAP1390   0.0000
     9 O3B         -4.8910   -31.3980    29.4070 O.3          1 NAP1390   0.0000
    10 C2B         -7.2320   -31.3390    29.6900 C.3          1 NAP1390   0.0000
    11 O2B         -7.2370   -32.0760    28.4700 O.3          1 NAP1390   0.0000
    12 C1B         -7.1910   -32.1990    30.9610 C.3          1 NAP1390   0.0000
    13 N9A         -8.5180   -32.6080    31.4470 N.pl3        1 NAP1390   0.0000
    14 C8A         -9.6170   -31.8150    31.7360 C.2          1 NAP1390   0.0000
    15 N7A        -10.5990   -32.6280    32.2040 N.2          1 NAP1390   0.0000
    16 C5A        -10.1270   -33.9040    32.2070 C.ar         1 NAP1390   0.0000
    17 C6A        -10.6990   -35.1200    32.5610 C.ar         1 NAP1390   0.0000
    18 N6A        -11.9540   -35.1540    32.9810 N.pl3        1 NAP1390   0.0000
    19 N1A         -9.9570   -36.2800    32.4580 N.ar         1 NAP1390   0.0000
    20 C2A         -8.6460   -36.2470    31.9990 C.ar         1 NAP1390   0.0000
    21 N3A         -8.0820   -35.0250    31.6480 N.ar         1 NAP1390   0.0000
    22 C4A         -8.8160   -33.8950    31.7500 C.ar         1 NAP1390   0.0000
    23 O3          -5.3960   -26.5380    33.3840 O.3          1 NAP1390   0.0000
    24 PN          -4.4820   -25.6210    34.4020 P.3          1 NAP1390   0.0000
    25 O1N         -3.0350   -25.9830    34.2100 O.co2        1 NAP1390   0.0000
    26 O2N         -4.9530   -24.2340    34.2680 O.co2        1 NAP1390  -1.0000
    27 O5D         -4.6950   -26.3720    35.8030 O.3          1 NAP1390   0.0000
    28 C5D         -5.8200   -26.2670    36.5680 C.3          1 NAP1390   0.0000
    29 C4D         -5.4310   -25.7860    37.9580 C.3          1 NAP1390   0.0000
    30 O4D         -4.4670   -24.7230    37.9380 O.3          1 NAP1390   0.0000
    31 C3D         -6.7410   -25.2390    38.4890 C.3          1 NAP1390   0.0000
    32 O3D         -6.8860   -25.5160    39.8490 O.3          1 NAP1390   0.0000
    33 C2D         -6.5910   -23.7820    38.1430 C.3          1 NAP1390   0.0000
    34 O2D         -7.5170   -23.0150    38.8670 O.3          1 NAP1390   0.0000
    35 C1D         -5.1040   -23.5680    38.4500 C.3          1 NAP1390   0.0000
    36 N1N         -4.6050   -22.2610    37.9520 N.ar         1 NAP1390   1.0000
    37 C2N         -4.6210   -21.9350    36.6140 C.ar         1 NAP1390   0.0000
    38 C3N         -4.1870   -20.6670    36.2000 C.ar         1 NAP1390   0.0000
    39 C7N         -3.9970   -20.3690    34.7350 C.2          1 NAP1390   0.0000
    40 O7N         -3.6390   -19.0610    34.3510 O.2          1 NAP1390   0.0000
    41 N7N         -4.1700   -21.3650    33.8500 N.am         1 NAP1390   0.0000
    42 C4N         -3.7390   -19.7500    37.1470 C.ar         1 NAP1390   0.0000
    43 C5N         -3.7430   -20.0960    38.4960 C.ar         1 NAP1390   0.0000
    44 C6N         -4.1860   -21.3470    38.8830 C.ar         1 NAP1390   0.0000
    45 P2B         -8.6280   -32.6150    27.8250 P.3          1 NAP1390   0.0000
    46 O1X         -9.6080   -31.4800    27.7900 O.co2        1 NAP1390   0.0000
    47 O2X         -9.1220   -33.7770    28.6490 O.co2        1 NAP1390  -1.0000
    48 O3X         -8.3370   -33.1460    26.4400 O.co2        1 NAP1390  -1.0000
    49 H5B1        -7.2255   -28.8377    31.4292 H            1 NAP1390   0.0000
    50 H5B2        -6.3919   -28.9875    32.8253 H            1 NAP1390   0.0000
    51 H4B         -4.8622   -30.4738    31.6427 H            1 NAP1390   0.0000
    52 H3B         -5.9678   -29.7011    29.3782 H            1 NAP1390   0.0000
    53 H5          -4.9700   -31.5250    28.4183 H            1 NAP1390   0.0000
    54 H2B         -8.0120   -30.7139    29.7200 H            1 NAP1390   0.0000
    55 H1B         -6.6413   -33.0157    30.7854 H            1 NAP1390   0.0000
    56 H8A         -9.6763   -30.8234    31.6208 H            1 NAP1390   0.0000
    57 H6A1       -12.3720   -36.0255    33.2374 H            1 NAP1390   0.0000
    58 H6A2       -12.4840   -34.3082    33.0419 H            1 NAP1390   0.0000
    59 H2A         -8.1149   -37.0908    31.9220 H            1 NAP1390   0.0000
    60 H5D1        -6.2647   -27.1602    36.6346 H            1 NAP1390   0.0000
    61 H5D2        -6.4494   -25.6116    36.1504 H            1 NAP1390   0.0000
    62 H4D         -5.1093   -26.5474    38.5208 H            1 NAP1390   0.0000
    63 H3D         -7.5055   -25.6326    37.9785 H            1 NAP1390   0.0000
    64 H16         -6.8715   -26.5058    39.9910 H            1 NAP1390   0.0000
    65 H2D         -6.7491   -23.6556    37.1637 H            1 NAP1390   0.0000
    66 H18         -8.4448   -23.3116    38.6408 H            1 NAP1390   0.0000
    67 H1D         -4.9947   -23.5762    39.4440 H            1 NAP1390   0.0000
    68 H2N         -4.9411   -22.6003    35.9396 H            1 NAP1390   0.0000
    69 H7N1        -4.0495   -21.1918    32.8725 H            1 NAP1390   0.0000
    70 H7N2        -4.4193   -22.2795    34.1688 H            1 NAP1390   0.0000
    71 H4N         -3.4162   -18.8480    36.8602 H            1 NAP1390   0.0000
    72 H5N         -3.4264   -19.4415    39.1826 H            1 NAP1390   0.0000
    73 H6N         -4.2009   -21.5877    39.8535 H            1 NAP1390   0.0000
@<TRIPOS>BOND
     1    1    2      ar
     2    1    3      ar
     3    1    4       1
     4    1   23       1
     5    4    5       1
     6    5    6       1
     7    6    7       1
     8    6    8       1
     9    7   12       1
    10    8    9       1
    11    8   10       1
    12   10   11       1
    13   10   12       1
    14   11   45       1
    15   12   13       1
    16   13   14       1
    17   13   22       1
    18   14   15       2
    19   15   16       1
    20   16   17      ar
    21   16   22      ar
    22   17   18       1
    23   17   19      ar
    24   19   20      ar
    25   20   21      ar
    26   21   22      ar
    27   23   24       1
    28   24   25      ar
    29   24   26      ar
    30   24   27       1
    31   27   28       1
    32   28   29       1
    33   29   30       1
    34   29   31       1
    35   30   35       1
    36   31   32       1
    37   31   33       1
    38   33   34       1
    39   33   35       1
    40   35   36       1
    41   36   37      ar
    42   36   44      ar
    43   37   38      ar
    44   38   39       1
    45   38   42      ar
    46   39   40       2
    47   39   41      am
    48   42   43      ar
    49   43   44      ar
    50   45   46      ar
    51   45   47      ar
    52   45   48      ar
    53   43   72       1
    54    5   49       1
    55    5   50       1
    56    6   51       1
    57    8   52       1
    58    9   53       1
    59   10   54       1
    60   12   55       1
    61   14   56       1
    62   18   57       1
    63   18   58       1
    64   20   59       1
    65   44   73       1
    66   28   60       1
    67   28   61       1
    68   29   62       1
    69   31   63       1
    70   32   64       1
    71   33   65       1
    72   34   66       1
    73   35   67       1
    74   37   68       1
    75   41   69       1
    76   41   70       1
    77   42   71       1
@<TRIPOS>SUBSTRUCTURE
     1 NAP1390     1 GROUP             4 A     NAP     0 **** NAP A1390
