@<TRIPOS>MOLECULE
4e1v_URF_3_ligand
   11    11     1     0     0
SMALL
NO_CHARGES


@<TRIPOS>ATOM
     1 N1          67.0240     8.8100    13.1930 N.pl3        1 URF1301  -1.0000
     2 C2          66.2120     7.6250    13.2140 C.2          1 URF1301   0.0000
     3 N3          65.9770     6.9150    12.0170 N.pl3        1 URF1301   0.0000
     4 C4          66.5110     7.3680    10.8040 C.2          1 URF1301   0.0000
     5 C5          67.3480     8.5950    10.7890 C.2          1 URF1301   0.0000
     6 C6          67.5900     9.2880    11.9500 C.2          1 URF1301   0.0000
     7 O2          65.7370     7.2160    14.2610 O.2          1 URF1301   0.0000
     8 O4          66.2840     6.7550     9.7660 O.2          1 URF1301   0.0000
     9 F5          67.8540     9.0220     9.6390 F            1 URF1301   0.0000
    10 H1          65.4246     6.0816    12.0351 H            1 URF1301   0.0000
    11 H2          68.1520    10.1150    11.9364 H            1 URF1301   0.0000
@<TRIPOS>BOND
     1    1    2       1
     2    1    6       1
     3    2    3       1
     4    2    7       2
     5    3    4       1
     6    4    5       1
     7    4    8       2
     8    5    6       2
     9    5    9       1
    10    6   11       1
    11    3   10       1
@<TRIPOS>SUBSTRUCTURE
     1 URF1301     1 GROUP             4 C     URF     0 **** URF C1301
