@<TRIPOS>MOLECULE
./coach420/1afk/ligand.pdb
 31 33 0 0 0
SMALL
GASTEIGER

@<TRIPOS>ATOM
      1  PB        37.0960   -2.6270   23.1460 P.3   125  PAP125      0.5373
      2  O1B       35.6450   -2.8540   22.9910 O.3   125  PAP125     -0.1143
      3  O2B       37.4700   -1.7080   24.2740 O.3   125  PAP125     -0.1143
      4  O3B       37.7900   -2.3100   21.8760 O.2   125  PAP125     -0.2221
      5  PA        38.8980   -5.1970   23.0660 P.3   125  PAP125      0.2231
      6  O1A       39.1010   -6.1020   24.2360 O.3   125  PAP125     -0.4370
      7  O2A       40.0900   -4.5480   22.4560 O.2   125  PAP125     -0.5169
      8  O3A       37.7130   -4.0790   23.6160 O.3   125  PAP125     -0.2261
      9  O5'       38.1350   -6.0710   21.9240 O.3   125  PAP125     -0.3111
     10  C5'       37.6540   -5.4600   20.7430 C.3   125  PAP125      0.1812
     11  C4'       37.4550   -6.5780   19.7620 C.3   125  PAP125      0.1775
     12  O4'       36.8070   -5.9900   18.6290 O.3   125  PAP125     -0.3307
     13  C3'       38.7890   -7.1850   19.2480 C.3   125  PAP125      0.1904
     14  O3'       38.6030   -8.6050   18.9820 O.3   125  PAP125     -0.2674
     15  P         39.2670   -9.7840   20.0240 P.3   125  PAP125      0.5327
     16  O1        38.0320  -10.3450   20.6260 O.3   125  PAP125     -0.1145
     17  O2        39.9760  -10.6860   19.0810 O.2   125  PAP125     -0.2224
     18  O3        40.1960   -9.0560   20.9410 O.3   125  PAP125     -0.1145
     19  C2'       38.9870   -6.4000   17.9570 C.3   125  PAP125      0.2310
     20  O2'       39.8810   -7.0970   17.0610 O.3   125  PAP125     -0.2156
     21  C1'       37.5180   -6.4600   17.4940 C.3   125  PAP125      0.2408
     22  N9        37.1230   -5.5360   16.4070 N.ar  125  PAP125     -0.2693
     23  C8        36.2620   -5.9000   15.4020 C.ar  125  PAP125      0.1816
     24  N7        36.0380   -4.9630   14.5290 N.ar  125  PAP125     -0.2193
     25  C5        36.8190   -3.8500   14.9770 C.ar  125  PAP125      0.1518
     26  C6        36.9920   -2.4990   14.4510 C.ar  125  PAP125      0.1919
     27  N6        36.4470   -2.1010   13.2850 N.pl3 125  PAP125     -0.1054
     28  N1        37.7970   -1.6570   15.1510 N.ar  125  PAP125     -0.2040
     29  C2        38.3900   -2.1300   16.2570 C.ar  125  PAP125      0.2016
     30  N3        38.3300   -3.3480   16.8480 N.ar  125  PAP125     -0.2048
     31  C4        37.4970   -4.1920   16.1420 C.ar  125  PAP125      0.1692
@<TRIPOS>BOND
     1     1     4    2
     2     1     2    1
     3     1     8    1
     4     1     3    1
     5     5     9    1
     6     5     7    2
     7     5     8    1
     8     5     6    1
     9     9    10    1
    10    10    11    1
    11    11    12    1
    12    11    13    1
    13    12    21    1
    14    13    19    1
    15    13    14    1
    16    14    15    1
    17    15    17    2
    18    15    16    1
    19    15    18    1
    20    19    20    1
    21    19    21    1
    22    21    22    1
    23    22    23   ar
    24    22    31   ar
    25    23    24   ar
    26    24    25   ar
    27    25    26   ar
    28    25    31   ar
    29    26    27    1
    30    26    28   ar
    31    28    29   ar
    32    29    30   ar
    33    30    31   ar
