@<TRIPOS>MOLECULE
2ol0_DUD_1_ligand
   35    36     1     0     0
SMALL
NO_CHARGES


@<TRIPOS>ATOM
     1 N1         -36.9720   -22.3800    10.7090 N.pl3        1 DUD1202   0.0000
     2 C2         -38.0610   -22.2170     9.8180 C.2          1 DUD1202   0.0000
     3 N3         -37.8380   -22.0070     8.5130 N.pl3        1 DUD1202   0.0000
     4 C4         -36.5960   -21.9410     8.0220 C.2          1 DUD1202   0.0000
     5 C5         -35.4980   -22.1020     8.8630 C.2          1 DUD1202   0.0000
     6 C6         -35.7100   -22.3230    10.2250 C.2          1 DUD1202   0.0000
     7 O2         -39.2400   -22.2720    10.2350 O.2          1 DUD1202   0.0000
     8 O4         -36.4360   -21.7410     6.8010 O.2          1 DUD1202   0.0000
     9 C1'        -37.2450   -22.6350    12.1410 C.3          1 DUD1202   0.0000
    10 C2'        -37.0920   -24.1340    12.3860 C.3          1 DUD1202   0.0000
    11 C3'        -35.8070   -24.2400    13.1770 C.3          1 DUD1202   0.0000
    12 C4'        -35.6880   -22.9000    13.8840 C.3          1 DUD1202   0.0000
    13 O4'        -36.3570   -21.9530    13.0440 O.3          1 DUD1202   0.0000
    14 O3'        -35.8490   -25.3260    14.1010 O.3          1 DUD1202   0.0000
    15 C5'        -34.2290   -22.5210    14.0780 C.3          1 DUD1202   0.0000
    16 O5'        -34.1230   -21.1650    14.5070 O.3          1 DUD1202   0.0000
    17 PA         -32.8910   -20.6760    15.4310 P.3          1 DUD1202   0.0000
    18 O1A        -33.4460   -19.6500    16.3860 O.co2        1 DUD1202   0.0000
    19 O2A        -32.2000   -21.9040    15.9830 O.co2        1 DUD1202  -1.0000
    20 O3A        -31.9330   -19.9010    14.3840 O.3          1 DUD1202   0.0000
    21 PB         -30.4020   -20.3200    14.0640 P.3          1 DUD1202   0.0000
    22 O1B        -29.7930   -20.6220    15.4100 O.co2        1 DUD1202   0.0000
    23 O2B        -29.8290   -19.0820    13.4070 O.co2        1 DUD1202  -1.0000
    24 O3B        -30.5360   -21.5360    13.1660 O.co2        1 DUD1202  -1.0000
    25 H1         -38.6160   -21.8975     7.8943 H            1 DUD1202   0.0000
    26 H2         -34.5688   -22.0598     8.4958 H            1 DUD1202   0.0000
    27 H3         -34.9310   -22.4389    10.8413 H            1 DUD1202   0.0000
    28 H1'        -38.1863   -22.3664    12.3456 H            1 DUD1202   0.0000
    29 H2'1       -37.0202   -24.6310    11.5212 H            1 DUD1202   0.0000
    30 H2'2       -37.8646   -24.4899    12.9118 H            1 DUD1202   0.0000
    31 H3'        -35.0360   -24.3600    12.5516 H            1 DUD1202   0.0000
    32 H4'        -36.1456   -22.9454    14.7720 H            1 DUD1202   0.0000
    33 H9         -34.9249   -25.6827    14.2384 H            1 DUD1202   0.0000
    34 H5'1       -33.7413   -22.6322    13.2121 H            1 DUD1202   0.0000
    35 H5'2       -33.8220   -23.1184    14.7689 H            1 DUD1202   0.0000
@<TRIPOS>BOND
     1    1    2       1
     2    1    6       1
     3    1    9       1
     4    2    3       1
     5    2    7       2
     6    3    4       1
     7    4    5       1
     8    4    8       2
     9    5    6       2
    10    9   10       1
    11    9   13       1
    12   10   11       1
    13   11   12       1
    14   11   14       1
    15   12   13       1
    16   12   15       1
    17   15   16       1
    18   16   17       1
    19   17   18      ar
    20   17   19      ar
    21   17   20       1
    22   20   21       1
    23   21   22      ar
    24   21   23      ar
    25   21   24      ar
    26    3   25       1
    27    5   26       1
    28    6   27       1
    29    9   28       1
    30   10   29       1
    31   10   30       1
    32   11   31       1
    33   12   32       1
    34   14   33       1
    35   15   34       1
    36   15   35       1
@<TRIPOS>SUBSTRUCTURE
     1 DUD1202     1 GROUP             4 B     DUD     0 **** DUD B1202
