@<TRIPOS>MOLECULE
3b6h_MXD_2_ligand
   30    31     1     0     0
SMALL
NO_CHARGES


@<TRIPOS>ATOM
     1 NAO         35.1090    29.3140    73.2260 N.pl3        1 MXD551   0.0000
     2 CAE         35.9860    28.3950    72.7610 C.ar         1 MXD551   0.0000
     3 CAF         36.7940    27.6780    73.6330 C.ar         1 MXD551   0.0000
     4 NAC         36.0940    28.1640    71.3750 N.ar         1 MXD551   1.0000
     5 OAN         35.3640    28.8170    70.6000 O.3          1 MXD551  -1.0000
     6 CAA         36.9500    27.2400    70.9080 C.ar         1 MXD551   0.0000
     7 NAM         37.0350    27.0110    69.5770 N.pl3        1 MXD551   0.0000
     8 NAB         37.7430    26.5410    71.7660 N.ar         1 MXD551   0.0000
     9 CAD         37.6790    26.7390    73.1080 C.ar         1 MXD551   0.0000
    10 NAI         38.5010    25.9930    73.9790 N.pl3        1 MXD551   0.0000
    11 CAG         39.4990    25.0860    73.4060 C.3          1 MXD551   0.0000
    12 CAK         38.3000    26.1110    75.4290 C.3          1 MXD551   0.0000
    13 CAL         39.6580    26.3450    76.0920 C.3          1 MXD551   0.0000
    14 CAJ         40.6620    25.2830    75.6510 C.3          1 MXD551   0.0000
    15 CAH         40.8300    25.2880    74.1350 C.3          1 MXD551   0.0000
    16 HAO1        34.5329    29.8235    72.5869 H            1 MXD551   0.0000
    17 HAO2        35.0368    29.4838    74.2088 H            1 MXD551   0.0000
    18 HAF         36.7417    27.8327    74.6196 H            1 MXD551   0.0000
    19 HAM1        37.6717    26.3236    69.2276 H            1 MXD551   0.0000
    20 HAM2        36.4612    27.5292    68.9428 H            1 MXD551   0.0000
    21 HAG1        39.6154    25.2864    72.4332 H            1 MXD551   0.0000
    22 HAG2        39.1956    24.1397    73.5174 H            1 MXD551   0.0000
    23 HAK1        37.8932    25.2686    75.7824 H            1 MXD551   0.0000
    24 HAK2        37.6929    26.8815    75.6234 H            1 MXD551   0.0000
    25 HAL1        39.5503    26.3029    77.0853 H            1 MXD551   0.0000
    26 HAL2        39.9994    27.2481    75.8317 H            1 MXD551   0.0000
    27 HAJ1        40.3355    24.3834    75.9412 H            1 MXD551   0.0000
    28 HAJ2        41.5461    25.4707    76.0789 H            1 MXD551   0.0000
    29 HAH1        41.2197    26.1660    73.8569 H            1 MXD551   0.0000
    30 HAH2        41.4537    24.5499    73.8775 H            1 MXD551   0.0000
@<TRIPOS>BOND
     1    1    2       1
     2    2    3      ar
     3    2    4      ar
     4    3    9      ar
     5    4    5       1
     6    4    6      ar
     7    6    7       1
     8    6    8      ar
     9    8    9      ar
    10    9   10       1
    11   10   11       1
    12   10   12       1
    13   11   15       1
    14   12   13       1
    15   13   14       1
    16   14   15       1
    17    1   16       1
    18    1   17       1
    19    3   18       1
    20    7   19       1
    21    7   20       1
    22   11   21       1
    23   11   22       1
    24   12   23       1
    25   12   24       1
    26   13   25       1
    27   13   26       1
    28   14   27       1
    29   14   28       1
    30   15   29       1
    31   15   30       1
@<TRIPOS>SUBSTRUCTURE
     1 MXD551      1 GROUP             4 B     MXD     0 **** MXD B 551
