@<TRIPOS>MOLECULE
3rox_TEP_1_ligand
   21    22     1     0     0
SMALL
NO_CHARGES


@<TRIPOS>ATOM
     1 C1          11.5740    25.6190    26.1170 C.3          1 TEP266   0.0000
     2 N1          11.8120    25.6750    27.5620 N.pl3        1 TEP266   0.0000
     3 C2          12.5820    26.7530    28.0660 C.2          1 TEP266   0.0000
     4 O2          13.0010    27.5680    27.2300 O.2          1 TEP266   0.0000
     5 N3          12.8780    26.9350    29.4510 N.pl3        1 TEP266   0.0000
     6 C3          13.6840    28.0660    29.9460 C.3          1 TEP266   0.0000
     7 C4          12.4040    26.0290    30.3060 C.2          1 TEP266   0.0000
     8 C5          11.5930    24.8680    29.8890 C.2          1 TEP266   0.0000
     9 C6          11.2880    24.6860    28.4350 C.2          1 TEP266   0.0000
    10 O6          10.6000    23.7180    28.0000 O.2          1 TEP266   0.0000
    11 N7          11.3230    24.2200    31.0280 N.pl3        1 TEP266   0.0000
    12 C8          11.8980    24.8920    32.0730 C.2          1 TEP266   0.0000
    13 N9          12.5610    25.9980    31.6420 N.2          1 TEP266   0.0000
    14 H1          11.0214    24.8140    25.9011 H            1 TEP266   0.0000
    15 H2          11.0889    26.4439    25.8269 H            1 TEP266   0.0000
    16 H3          12.4493    25.5609    25.6370 H            1 TEP266   0.0000
    17 H4          13.7700    28.0041    30.9404 H            1 TEP266   0.0000
    18 H5          14.5929    28.0348    29.5302 H            1 TEP266   0.0000
    19 H6          13.2357    28.9263    29.7031 H            1 TEP266   0.0000
    20 H7          11.8381    24.6064    33.0295 H            1 TEP266   0.0000
    21 H8          10.7869    23.3793    31.1039 H            1 TEP266   0.0000
@<TRIPOS>BOND
     1    1    2       1
     2    2    3       1
     3    2    9       1
     4    3    4       2
     5    3    5       1
     6    5    6       1
     7    5    7       1
     8    7    8       2
     9    7   13       1
    10    8    9       1
    11    8   11       1
    12    9   10       2
    13   11   12       1
    14   12   13       2
    15    1   14       1
    16    1   15       1
    17    1   16       1
    18    6   17       1
    19    6   18       1
    20    6   19       1
    21   12   20       1
    22   11   21       1
@<TRIPOS>SUBSTRUCTURE
     1 TEP266      1 GROUP             4 A     TEP     0 **** TEP A 266
