@<TRIPOS>MOLECULE
4eqw_COA_3_ligand
   80    82     1     0     0
SMALL
NO_CHARGES


@<TRIPOS>ATOM
     1 N1A         -3.7440    16.5410    23.1900 N.ar         1 COA3006   0.0000
     2 C2A         -3.4030    17.6130    22.4480 C.ar         1 COA3006   0.0000
     3 N3A         -2.5050    18.5730    22.9630 N.ar         1 COA3006   0.0000
     4 C4A         -1.9570    18.4110    24.2700 C.ar         1 COA3006   0.0000
     5 C5A         -2.2970    17.3350    25.0170 C.ar         1 COA3006   0.0000
     6 C6A         -3.1930    16.3760    24.5040 C.ar         1 COA3006   0.0000
     7 N6A         -3.5510    15.2160    25.3070 N.pl3        1 COA3006   0.0000
     8 N7A         -1.6160    17.4280    26.2480 N.2          1 COA3006   0.0000
     9 C8A         -0.8230    18.6300    26.2320 C.2          1 COA3006   0.0000
    10 N9A         -1.0120    19.2350    25.0590 N.pl3        1 COA3006   0.0000
    11 C1B         -0.3780    20.4890    24.6000 C.3          1 COA3006   0.0000
    12 C2B         -1.3290    21.6390    24.5840 C.3          1 COA3006   0.0000
    13 O2B         -1.4100    22.4110    23.4190 O.3          1 COA3006   0.0000
    14 C3B         -1.1670    22.3430    25.8770 C.3          1 COA3006   0.0000
    15 O3B         -1.4720    23.7130    25.8770 O.3          1 COA3006   0.0000
    16 P3B         -2.9780    24.2520    25.4480 P.3          1 COA3006   0.0000
    17 O7A         -4.0420    22.9920    25.3920 O.co2        1 COA3006   0.0000
    18 O8A         -2.8850    24.9760    23.9600 O.co2        1 COA3006  -1.0000
    19 O9A         -3.4360    25.2280    26.4310 O.co2        1 COA3006  -1.0000
    20 C4B          0.2710    21.9960    26.3460 C.3          1 COA3006   0.0000
    21 O4B          0.7360    20.8700    25.4640 O.3          1 COA3006   0.0000
    22 C5B          0.4350    21.7510    27.8620 C.3          1 COA3006   0.0000
    23 O5B         -0.5300    20.9080    28.4830 O.3          1 COA3006   0.0000
    24 P1A         -0.0450    20.1160    29.8680 P.3          1 COA3006   0.0000
    25 O1A          0.1730    18.5220    29.5060 O.co2        1 COA3006   0.0000
    26 O2A         -1.0490    20.2720    30.9160 O.co2        1 COA3006  -1.0000
    27 O3A          1.4080    20.7900    30.3570 O.3          1 COA3006   0.0000
    28 P2A          1.4740    21.6680    31.7830 P.3          1 COA3006   0.0000
    29 O4A          0.2900    22.8180    31.8420 O.co2        1 COA3006   0.0000
    30 O5A          2.7940    22.2910    31.9020 O.co2        1 COA3006  -1.0000
    31 O6A          1.2840    20.5700    33.0360 O.3          1 COA3006   0.0000
    32 CBP          3.1560    19.2700    34.1650 C.3          1 COA3006   0.0000
    33 CCP          2.1240    19.4150    33.0080 C.3          1 COA3006   0.0000
    34 CDP          4.4000    20.0790    33.8180 C.3          1 COA3006   0.0000
    35 CEP          2.5390    19.7980    35.4640 C.3          1 COA3006   0.0000
    36 CAP          3.5470    17.7620    34.3220 C.3          1 COA3006   0.0000
    37 OAP          3.9160    17.1760    33.0950 O.3          1 COA3006   0.0000
    38 C9P          4.6530    17.5380    35.4120 C.2          1 COA3006   0.0000
    39 O9P          4.5010    17.8790    36.5410 O.2          1 COA3006   0.0000
    40 N8P          6.0030    17.1680    34.9510 N.am         1 COA3006   0.0000
    41 C7P          7.0840    16.9540    35.9370 C.3          1 COA3006   0.0000
    42 C6P          8.4670    16.7540    35.3030 C.3          1 COA3006   0.0000
    43 C5P          8.5060    15.8580    34.0520 C.2          1 COA3006   0.0000
    44 O5P          7.5120    15.3690    33.6270 O.2          1 COA3006   0.0000
    45 N4P          9.7150    15.8590    33.2490 N.am         1 COA3006   0.0000
    46 C3P          9.8240    14.9780    32.0930 C.3          1 COA3006   0.0000
    47 C2P         11.1450    14.2310    32.0270 C.3          1 COA3006   0.0000
    48 S1P         11.8430    13.8280    33.6560 S.3          1 COA3006   0.0000
    49 H2A         -3.7864    17.7286    21.5317 H            1 COA3006   0.0000
    50 H6A1        -3.1653    15.1035    26.2228 H            1 COA3006   0.0000
    51 H6A2        -4.1826    14.5315    24.9429 H            1 COA3006   0.0000
    52 H8A         -0.2334    18.9543    26.9717 H            1 COA3006   0.0000
    53 H1B         -0.0298    20.3499    23.6730 H            1 COA3006   0.0000
    54 H2B         -2.2295    21.2096    24.6531 H            1 COA3006   0.0000
    55 H31         -2.0811    23.1409    23.5488 H            1 COA3006   0.0000
    56 H3B         -1.7941    21.9078    26.5230 H            1 COA3006   0.0000
    57 H4B          0.8414    22.7864    26.1224 H            1 COA3006   0.0000
    58 H5B1         0.3984    22.6402    28.3181 H            1 COA3006   0.0000
    59 H5B2         1.3346    21.3390    28.0065 H            1 COA3006   0.0000
    60 HCP1         2.6340    19.4325    32.1480 H            1 COA3006   0.0000
    61 HCP2         1.5317    18.6095    33.0280 H            1 COA3006   0.0000
    62 HDP1         5.0701    19.9928    34.5553 H            1 COA3006   0.0000
    63 HDP2         4.7950    19.7342    32.9665 H            1 COA3006   0.0000
    64 HDP3         4.1512    21.0409    33.7046 H            1 COA3006   0.0000
    65 HEP1         3.2001    19.7059    36.2086 H            1 COA3006   0.0000
    66 HEP2         2.2970    20.7616    35.3505 H            1 COA3006   0.0000
    67 HEP3         1.7171    19.2712    35.6809 H            1 COA3006   0.0000
    68 HAP          2.7284    17.2820    34.6374 H            1 COA3006   0.0000
    69 H10          3.6877    16.2025    33.1085 H            1 COA3006   0.0000
    70 H8P          6.1875    17.0619    33.9739 H            1 COA3006   0.0000
    71 H7P1         6.8633    16.1411    36.4759 H            1 COA3006   0.0000
    72 H7P2         7.1249    17.7517    36.5386 H            1 COA3006   0.0000
    73 H6P1         9.0645    16.3447    35.9925 H            1 COA3006   0.0000
    74 H6P2         8.8205    17.6538    35.0473 H            1 COA3006   0.0000
    75 H4P         10.4737    16.4646    33.4890 H            1 COA3006   0.0000
    76 H3P1         9.7298    15.5294    31.2641 H            1 COA3006   0.0000
    77 H3P2         9.0826    14.3081    32.1338 H            1 COA3006   0.0000
    78 H2P1        11.8038    14.7988    31.5336 H            1 COA3006   0.0000
    79 H2P2        10.9998    13.3775    31.5265 H            1 COA3006   0.0000
    80 H110        14.0140    13.5400    32.7860 H            1 COA3006   0.0000
@<TRIPOS>BOND
     1   47   78       1
     2   47   79       1
     3   46   77       1
     4   46   76       1
     5   45   75       1
     6   42   74       1
     7   42   73       1
     8   41   72       1
     9   41   71       1
    10   40   70       1
    11   37   69       1
    12   48   80       1
    13    1    2      ar
    14    1    6      ar
    15    2    3      ar
    16    3    4      ar
    17    4    5      ar
    18    4   10       1
    19    5    6      ar
    20    5    8       1
    21    6    7       1
    22    8    9       2
    23    9   10       1
    24   10   11       1
    25   11   12       1
    26   11   21       1
    27   12   13       1
    28   12   14       1
    29   14   15       1
    30   14   20       1
    31   15   16       1
    32   16   17      ar
    33   16   18      ar
    34   16   19      ar
    35   20   21       1
    36   20   22       1
    37   22   23       1
    38   23   24       1
    39   24   25      ar
    40   24   26      ar
    41   24   27       1
    42   27   28       1
    43   28   29      ar
    44   28   30      ar
    45   28   31       1
    46   31   33       1
    47   32   33       1
    48   32   34       1
    49   32   35       1
    50   32   36       1
    51   36   37       1
    52   36   38       1
    53   38   39       2
    54   38   40      am
    55   40   41       1
    56   41   42       1
    57   42   43       1
    58   43   44       2
    59   43   45      am
    60   45   46       1
    61   46   47       1
    62   47   48       1
    63    2   49       1
    64    7   50       1
    65    7   51       1
    66    9   52       1
    67   11   53       1
    68   12   54       1
    69   13   55       1
    70   14   56       1
    71   36   68       1
    72   35   67       1
    73   20   57       1
    74   22   58       1
    75   22   59       1
    76   35   66       1
    77   35   65       1
    78   33   60       1
    79   33   61       1
    80   34   62       1
    81   34   63       1
    82   34   64       1
@<TRIPOS>SUBSTRUCTURE
     1 COA3006     1 GROUP             4 B     COA     0 **** COA B3006
