@<TRIPOS>MOLECULE
4dcv_GCP_1_ligand
   46    48     1     0     0
SMALL
NO_CHARGES


@<TRIPOS>ATOM
     1 PG         -14.4520    -6.9930   -32.8920 P.3          1 GCP500   0.0000
     2 O1G        -13.7440    -6.6470   -34.1920 O.co2        1 GCP500   0.0000
     3 O2G        -13.5410    -7.5580   -31.8150 O.co2        1 GCP500  -1.0000
     4 O3G        -15.3480    -5.8940   -32.3530 O.co2        1 GCP500  -1.0000
     5 C3B        -15.5870    -8.3570   -33.3090 C.3          1 GCP500   0.0000
     6 PB         -14.7540    -9.9460   -33.6170 P.3          1 GCP500   0.0000
     7 O1B        -13.5470    -9.6980   -34.4780 O.co2        1 GCP500   0.0000
     8 O2B        -14.5950   -10.7120   -32.3130 O.co2        1 GCP500  -1.0000
     9 O3A        -15.7750   -10.8190   -34.4910 O.3          1 GCP500   0.0000
    10 PA         -17.0930   -11.4150   -33.7770 P.3          1 GCP500   0.0000
    11 O1A        -16.7030   -12.6250   -32.9650 O.co2        1 GCP500   0.0000
    12 O2A        -17.7730   -10.2480   -33.1140 O.co2        1 GCP500  -1.0000
    13 O5'        -17.9400   -11.8430   -35.0700 O.3          1 GCP500   0.0000
    14 C5'        -18.2080   -10.8740   -36.0880 C.3          1 GCP500   0.0000
    15 C4'        -19.3340   -11.3690   -36.9860 C.3          1 GCP500   0.0000
    16 O4'        -18.8900   -12.4730   -37.7900 O.3          1 GCP500   0.0000
    17 C3'        -20.5290   -11.8840   -36.2190 C.3          1 GCP500   0.0000
    18 O3'        -21.6780   -11.5210   -36.9930 O.3          1 GCP500   0.0000
    19 C2'        -20.3650   -13.3930   -36.2550 C.3          1 GCP500   0.0000
    20 O2'        -21.6200   -14.0620   -36.1760 O.3          1 GCP500   0.0000
    21 C1'        -19.7070   -13.6330   -37.6010 C.3          1 GCP500   0.0000
    22 N9         -18.8490   -14.8340   -37.5840 N.pl3        1 GCP500   0.0000
    23 C8         -17.9010   -15.0980   -36.6600 C.2          1 GCP500   0.0000
    24 N7         -17.2730   -16.2720   -36.9190 N.2          1 GCP500   0.0000
    25 C5         -17.8200   -16.7820   -38.0400 C.2          1 GCP500   0.0000
    26 C6         -17.6230   -17.9970   -38.8770 C.2          1 GCP500   0.0000
    27 O6         -16.7750   -18.8650   -38.5930 O.2          1 GCP500   0.0000
    28 N1         -18.3810   -18.1600   -39.9630 N.pl3        1 GCP500   0.0000
    29 C2         -19.3130   -17.2600   -40.3230 C.2          1 GCP500   0.0000
    30 N2         -20.0200   -17.5270   -41.4500 N.pl3        1 GCP500   0.0000
    31 N3         -19.5520   -16.1210   -39.6050 N.2          1 GCP500   0.0000
    32 C4         -18.8540   -15.8260   -38.4810 C.2          1 GCP500   0.0000
    33 H3B1       -16.0944    -8.1032   -34.1325 H            1 GCP500   0.0000
    34 H3B2       -16.2250    -8.4787   -32.5487 H            1 GCP500   0.0000
    35 H5'1       -17.3840   -10.7317   -36.6364 H            1 GCP500   0.0000
    36 H5'2       -18.4781   -10.0106   -35.6619 H            1 GCP500   0.0000
    37 H4'        -19.6261   -10.6239   -37.5856 H            1 GCP500   0.0000
    38 H3'        -20.5678   -11.5258   -35.2861 H            1 GCP500   0.0000
    39 H7         -22.5056   -11.8388   -36.5303 H            1 GCP500   0.0000
    40 H2'        -19.7633   -13.6948   -35.5155 H            1 GCP500   0.0000
    41 H9         -21.4729   -15.0508   -36.2024 H            1 GCP500   0.0000
    42 H1'        -20.3954   -13.7013   -38.3231 H            1 GCP500   0.0000
    43 H11        -17.6889   -14.5041   -35.8839 H            1 GCP500   0.0000
    44 H12        -18.2521   -18.9762   -40.5262 H            1 GCP500   0.0000
    45 H13        -20.7248   -16.8894   -41.7609 H            1 GCP500   0.0000
    46 H14        -19.8362   -18.3614   -41.9696 H            1 GCP500   0.0000
@<TRIPOS>BOND
     1    1    2      ar
     2    1    3      ar
     3    1    4      ar
     4    1    5       1
     5    5    6       1
     6    6    7      ar
     7    6    8      ar
     8    6    9       1
     9    9   10       1
    10   10   11      ar
    11   10   12      ar
    12   10   13       1
    13   13   14       1
    14   14   15       1
    15   15   16       1
    16   15   17       1
    17   16   21       1
    18   17   18       1
    19   17   19       1
    20   19   20       1
    21   19   21       1
    22   21   22       1
    23   22   23       1
    24   22   32       1
    25   23   24       2
    26   24   25       1
    27   25   26       1
    28   25   32       2
    29   26   27       2
    30   26   28       1
    31   28   29       1
    32   29   30       1
    33   29   31       2
    34   31   32       1
    35   30   46       1
    36   30   45       1
    37    5   33       1
    38    5   34       1
    39   28   44       1
    40   23   43       1
    41   14   35       1
    42   14   36       1
    43   15   37       1
    44   17   38       1
    45   18   39       1
    46   19   40       1
    47   20   41       1
    48   21   42       1
@<TRIPOS>SUBSTRUCTURE
     1 GCP500      1 GROUP             4 A     GCP     0 **** GCP A 500
