@<TRIPOS>MOLECULE
3zok_NAD_2_ligand
   70    74     1     0     0
SMALL
NO_CHARGES


@<TRIPOS>ATOM
     1 PA           9.9270    -1.1470     2.8330 P.3          1 NAD1382   0.0000
     2 O1A          9.6410    -2.2880     3.7280 O.co2        1 NAD1382   0.0000
     3 O2A         10.3650     0.1560     3.3570 O.co2        1 NAD1382  -1.0000
     4 O5B          8.6260    -0.8260     2.0180 O.3          1 NAD1382   0.0000
     5 C5B          8.7500    -0.1690     0.7680 C.3          1 NAD1382   0.0000
     6 C4B          7.8600     1.0580     0.6760 C.3          1 NAD1382   0.0000
     7 O4B          6.6780     0.7170    -0.0260 O.3          1 NAD1382   0.0000
     8 C3B          7.3720     1.5680     2.0110 C.3          1 NAD1382   0.0000
     9 O3B          7.0380     2.9320     1.8130 O.3          1 NAD1382   0.0000
    10 C2B          6.1100     0.7740     2.2360 C.3          1 NAD1382   0.0000
    11 O2B          5.2070     1.3790     3.1500 O.3          1 NAD1382   0.0000
    12 C1B          5.5470     0.7850     0.8390 C.3          1 NAD1382   0.0000
    13 N9A          4.7430    -0.3870     0.5020 N.pl3        1 NAD1382   0.0000
    14 C8A          4.9310    -1.6400     0.9010 C.2          1 NAD1382   0.0000
    15 N7A          4.0180    -2.4570     0.3570 N.2          1 NAD1382   0.0000
    16 C5A          3.2340    -1.7150    -0.4320 C.ar         1 NAD1382   0.0000
    17 C6A          2.0760    -1.9360    -1.3180 C.ar         1 NAD1382   0.0000
    18 N6A          1.5410    -3.1540    -1.4830 N.pl3        1 NAD1382   0.0000
    19 N1A          1.5640    -0.8760    -1.9460 N.ar         1 NAD1382   0.0000
    20 C2A          2.0700     0.3460    -1.8000 C.ar         1 NAD1382   0.0000
    21 N3A          3.1180     0.6200    -1.0300 N.ar         1 NAD1382   0.0000
    22 C4A          3.7250    -0.3490    -0.3280 C.ar         1 NAD1382   0.0000
    23 O3          10.9000    -1.5620     1.6330 O.3          1 NAD1382   0.0000
    24 PN          11.4890    -2.9940     1.2010 P.3          1 NAD1382   0.0000
    25 O1N         10.4390    -4.0330     1.1150 O.co2        1 NAD1382   0.0000
    26 O2N         12.3570    -2.7070     0.0310 O.co2        1 NAD1382  -1.0000
    27 O5D         12.4080    -3.3050     2.4530 O.3          1 NAD1382   0.0000
    28 C5D         13.7080    -3.8270     2.3720 C.3          1 NAD1382   0.0000
    29 C4D         14.1040    -4.1470     3.7950 C.3          1 NAD1382   0.0000
    30 O4D         14.0900    -5.5540     3.9820 O.3          1 NAD1382   0.0000
    31 C3D         15.5040    -3.6840     4.0980 C.3          1 NAD1382   0.0000
    32 O3D         15.4670    -3.1240     5.3980 O.3          1 NAD1382   0.0000
    33 C2D         16.3210    -4.9530     4.0240 C.3          1 NAD1382   0.0000
    34 O2D         17.4550    -4.9610     4.8760 O.3          1 NAD1382   0.0000
    35 C1D         15.3400    -6.0170     4.4480 C.3          1 NAD1382   0.0000
    36 N1N         15.6750    -7.3100     3.8700 N.ar         1 NAD1382   1.0000
    37 C2N         15.6690    -8.3410     4.6930 C.ar         1 NAD1382   0.0000
    38 C3N         15.9670    -9.6130     4.2570 C.ar         1 NAD1382   0.0000
    39 C7N         15.9380   -10.7290     5.2470 C.2          1 NAD1382   0.0000
    40 O7N         16.4670   -11.7870     5.0070 O.2          1 NAD1382   0.0000
    41 N7N         15.3260   -10.5090     6.3890 N.am         1 NAD1382   0.0000
    42 C4N         16.2850    -9.8080     2.9260 C.ar         1 NAD1382   0.0000
    43 C5N         16.2900    -8.7100     2.0810 C.ar         1 NAD1382   0.0000
    44 C6N         15.9760    -7.4590     2.5780 C.ar         1 NAD1382   0.0000
    45 H5B1         8.4950    -0.8073     0.0417 H            1 NAD1382   0.0000
    46 H5B2         9.7015     0.1130     0.6451 H            1 NAD1382   0.0000
    47 H4B          8.3414     1.7883     0.1914 H            1 NAD1382   0.0000
    48 H3B          8.0432     1.4384     2.7409 H            1 NAD1382   0.0000
    49 H5           6.7065     3.3221     2.6720 H            1 NAD1382   0.0000
    50 H2B          6.3272    -0.1596     2.5210 H            1 NAD1382   0.0000
    51 H7           5.5929     2.2410     3.4786 H            1 NAD1382   0.0000
    52 H1B          5.0295     1.6249     0.6754 H            1 NAD1382   0.0000
    53 H8A          5.6562    -1.9343     1.5235 H            1 NAD1382   0.0000
    54 H6A1         0.7557    -3.2772    -2.0897 H            1 NAD1382   0.0000
    55 H6A2         1.9272    -3.9395    -0.9994 H            1 NAD1382   0.0000
    56 H2A          1.6383     1.0990    -2.2966 H            1 NAD1382   0.0000
    57 H5D1        14.3320    -3.1515     1.9791 H            1 NAD1382   0.0000
    58 H5D2        13.7177    -4.6553     1.8118 H            1 NAD1382   0.0000
    59 H4D         13.4617    -3.7161     4.4288 H            1 NAD1382   0.0000
    60 H3D         15.8163    -3.0137     3.4248 H            1 NAD1382   0.0000
    61 H17         15.7463    -2.1647     5.3558 H            1 NAD1382   0.0000
    62 H2D         16.6074    -5.1152     3.0797 H            1 NAD1382   0.0000
    63 H19         18.1741    -5.5239     4.4685 H            1 NAD1382   0.0000
    64 H1D         15.3252    -6.0857     5.4455 H            1 NAD1382   0.0000
    65 H2N         15.4427    -8.1955     5.6561 H            1 NAD1382   0.0000
    66 H7N1        15.2834   -11.2301     7.0805 H            1 NAD1382   0.0000
    67 H7N2        14.9030    -9.6204     6.5665 H            1 NAD1382   0.0000
    68 H4N         16.5063   -10.7202     2.5811 H            1 NAD1382   0.0000
    69 H5N         16.5201    -8.8222     1.1143 H            1 NAD1382   0.0000
    70 H6N         15.9743    -6.6654     1.9696 H            1 NAD1382   0.0000
@<TRIPOS>BOND
     1    1    2      ar
     2    1    3      ar
     3    1    4       1
     4    1   23       1
     5    4    5       1
     6    5    6       1
     7    6    7       1
     8    6    8       1
     9    7   12       1
    10    8    9       1
    11    8   10       1
    12   10   11       1
    13   10   12       1
    14   12   13       1
    15   13   14       1
    16   13   22       1
    17   14   15       2
    18   15   16       1
    19   16   17      ar
    20   16   22      ar
    21   17   18       1
    22   17   19      ar
    23   19   20      ar
    24   20   21      ar
    25   21   22      ar
    26   23   24       1
    27   24   25      ar
    28   24   26      ar
    29   24   27       1
    30   27   28       1
    31   28   29       1
    32   29   30       1
    33   29   31       1
    34   30   35       1
    35   31   32       1
    36   31   33       1
    37   33   34       1
    38   33   35       1
    39   35   36       1
    40   36   37      ar
    41   36   44      ar
    42   37   38      ar
    43   38   39       1
    44   38   42      ar
    45   39   40       2
    46   39   41      am
    47   42   43      ar
    48   43   44      ar
    49   44   70       1
    50    5   45       1
    51    5   46       1
    52    6   47       1
    53    8   48       1
    54    9   49       1
    55   10   50       1
    56   11   51       1
    57   12   52       1
    58   14   53       1
    59   18   54       1
    60   18   55       1
    61   20   56       1
    62   43   69       1
    63   28   57       1
    64   28   58       1
    65   29   59       1
    66   31   60       1
    67   32   61       1
    68   33   62       1
    69   34   63       1
    70   35   64       1
    71   37   65       1
    72   41   66       1
    73   41   67       1
    74   42   68       1
@<TRIPOS>SUBSTRUCTURE
     1 NAD1382     1 GROUP             4 B     NAD     0 **** NAD B1382
