@<TRIPOS>MOLECULE
4g5q_GDP_2_ligand
   40    42     1     0     0
SMALL
NO_CHARGES


@<TRIPOS>ATOM
     1 PB          82.3950   -18.7740    53.6930 P.3          1 GDP401   0.0000
     2 O1B         82.7540   -17.5360    52.8990 O.co2        1 GDP401   0.0000
     3 O2B         83.2980   -19.9710    53.4360 O.co2        1 GDP401  -1.0000
     4 O3B         82.2370   -18.5580    55.1780 O.co2        1 GDP401  -1.0000
     5 O3A         80.9380   -19.1340    53.0910 O.3          1 GDP401   0.0000
     6 PA          79.6270   -18.7730    53.9320 P.3          1 GDP401   0.0000
     7 O1A         79.7270   -17.3130    54.2300 O.co2        1 GDP401   0.0000
     8 O2A         79.4940   -19.7360    55.0840 O.co2        1 GDP401  -1.0000
     9 O5'         78.3820   -19.0140    52.9430 O.3          1 GDP401   0.0000
    10 C5'         78.3850   -18.4010    51.6460 C.3          1 GDP401   0.0000
    11 C4'         76.9650   -18.0800    51.1800 C.3          1 GDP401   0.0000
    12 O4'         76.2880   -19.2180    50.6360 O.3          1 GDP401   0.0000
    13 C3'         76.0880   -17.6420    52.3170 C.3          1 GDP401   0.0000
    14 O3'         75.1000   -16.7930    51.7250 O.3          1 GDP401   0.0000
    15 C2'         75.4450   -18.9230    52.8200 C.3          1 GDP401   0.0000
    16 O2'         74.1690   -18.6400    53.3840 O.3          1 GDP401   0.0000
    17 C1'         75.2560   -19.6990    51.5350 C.3          1 GDP401   0.0000
    18 N9          75.4120   -21.1800    51.6010 N.pl3        1 GDP401   0.0000
    19 C8          76.4330   -21.8690    52.1500 C.2          1 GDP401   0.0000
    20 N7          76.2970   -23.1990    51.9790 N.2          1 GDP401   0.0000
    21 C5          75.1730   -23.3760    51.2820 C.2          1 GDP401   0.0000
    22 C6          74.4480   -24.5450    50.7460 C.2          1 GDP401   0.0000
    23 O6          74.9360   -25.6840    50.9490 O.2          1 GDP401   0.0000
    24 N1          73.2980   -24.3300    50.0680 N.pl3        1 GDP401   0.0000
    25 C2          72.8150   -23.0790    49.8640 C.2          1 GDP401   0.0000
    26 N2          71.6660   -22.8850    49.1660 N.pl3        1 GDP401   0.0000
    27 N3          73.4440   -21.9660    50.3350 N.2          1 GDP401   0.0000
    28 C4          74.5980   -22.0530    51.0280 C.2          1 GDP401   0.0000
    29 H5'1        78.8092   -19.0264    50.9911 H            1 GDP401   0.0000
    30 H5'2        78.9136   -17.5532    51.6877 H            1 GDP401   0.0000
    31 H4'         76.9992   -17.3557    50.4913 H            1 GDP401   0.0000
    32 H3'         76.6059   -17.1743    53.0333 H            1 GDP401   0.0000
    33 H5          74.2506   -16.8541    52.2493 H            1 GDP401   0.0000
    34 H2'         76.0368   -19.4082    53.4638 H            1 GDP401   0.0000
    35 H7          74.1597   -18.9189    54.3443 H            1 GDP401   0.0000
    36 H1'         74.3591   -19.4812    51.1501 H            1 GDP401   0.0000
    37 H9          77.2011   -21.4430    52.6280 H            1 GDP401   0.0000
    38 H10         72.7908   -25.1130    49.7079 H            1 GDP401   0.0000
    39 H11         71.3191   -21.9583    49.0216 H            1 GDP401   0.0000
    40 H12         71.1670   -23.6689    48.7965 H            1 GDP401   0.0000
@<TRIPOS>BOND
     1    1    2      ar
     2    1    3      ar
     3    1    4      ar
     4    1    5       1
     5    5    6       1
     6    6    7      ar
     7    6    8      ar
     8    6    9       1
     9    9   10       1
    10   10   11       1
    11   11   12       1
    12   11   13       1
    13   12   17       1
    14   13   14       1
    15   13   15       1
    16   15   16       1
    17   15   17       1
    18   17   18       1
    19   18   19       1
    20   18   28       1
    21   19   20       2
    22   20   21       1
    23   21   22       1
    24   21   28       2
    25   22   23       2
    26   22   24       1
    27   24   25       1
    28   25   26       1
    29   25   27       2
    30   27   28       1
    31   26   40       1
    32   26   39       1
    33   24   38       1
    34   10   29       1
    35   10   30       1
    36   11   31       1
    37   13   32       1
    38   14   33       1
    39   15   34       1
    40   16   35       1
    41   17   36       1
    42   19   37       1
@<TRIPOS>SUBSTRUCTURE
     1 GDP401      1 GROUP             4 B     GDP     0 **** GDP B 401
