@<TRIPOS>MOLECULE
4yp0_5IQ_1_ligand
   19    20     1     0     0
SMALL
NO_CHARGES


@<TRIPOS>ATOM
     1 CAB         63.9670     8.0550    18.8710 C.ar         1 5IQ502   0.0000
     2 CAF         62.9670     7.5670    17.9950 C.ar         1 5IQ502   0.0000
     3 CAK         61.6890     7.4320    18.4460 C.ar         1 5IQ502   0.0000
     4 NAH         61.2930     7.7410    19.6860 N.ar         1 5IQ502   0.0000
     5 CAD         62.2120     8.1920    20.5280 C.ar         1 5IQ502   0.0000
     6 CAA         63.5730     8.3650    20.1980 C.ar         1 5IQ502   0.0000
     7 CAC         64.5390     8.8420    21.1150 C.ar         1 5IQ502   0.0000
     8 CAG         65.8310     9.0290    20.7310 C.ar         1 5IQ502   0.0000
     9 CAI         66.2250     8.7480    19.4360 C.ar         1 5IQ502   0.0000
    10 CAE         65.3280     8.2670    18.4970 C.ar         1 5IQ502   0.0000
    11 NAJ         65.7400     8.0210    17.2150 N.pl3        1 5IQ502   0.0000
    12 HAF         63.1974     7.3235    17.0529 H            1 5IQ502   0.0000
    13 HAK         61.0029     7.0794    17.8097 H            1 5IQ502   0.0000
    14 HAD         61.9223     8.4245    21.4564 H            1 5IQ502   0.0000
    15 HAC         64.2692     9.0441    22.0565 H            1 5IQ502   0.0000
    16 HAG         66.5002     9.3721    21.3902 H            1 5IQ502   0.0000
    17 HAI         67.1781     8.8952    19.1717 H            1 5IQ502   0.0000
    18 HAJ1        66.6949     8.1715    16.9591 H            1 5IQ502   0.0000
    19 HAJ2        65.0861     7.6908    16.5343 H            1 5IQ502   0.0000
@<TRIPOS>BOND
     1    1    2      ar
     2    1    6      ar
     3    1   10      ar
     4    2    3      ar
     5    3    4      ar
     6    4    5      ar
     7    5    6      ar
     8    6    7      ar
     9    7    8      ar
    10    8    9      ar
    11    9   10      ar
    12   10   11       1
    13    2   12       1
    14    3   13       1
    15    5   14       1
    16    7   15       1
    17    8   16       1
    18    9   17       1
    19   11   18       1
    20   11   19       1
@<TRIPOS>SUBSTRUCTURE
     1 5IQ502      1 GROUP             4 A     5IQ     0 **** 5IQ A 502
