@<TRIPOS>MOLECULE
4p0a_ASP_LEU_TYR_GLY_1_ligand
   62    62     4     0     0
SMALL
NO_CHARGES


@<TRIPOS>ATOM
     1 N           13.2430   -11.9290    -1.1980 N.4          1 ASP803   1.0000
     2 CA          12.6190   -11.3200    -2.3730 C.3          1 ASP803   0.0000
     3 C           11.2590   -10.6960    -2.0280 C.2          1 ASP803   0.0000
     4 O           10.5570   -11.1750    -1.1420 O.2          1 ASP803   0.0000
     5 CB          12.4540   -12.3360    -3.5000 C.3          1 ASP803   0.0000
     6 CG          12.0670   -11.6790    -4.8130 C.2          1 ASP803   0.0000
     7 OD1         12.9690   -11.1910    -5.5410 O.co2        1 ASP803   0.0000
     8 OD2         10.8490   -11.6020    -5.0870 O.co2        1 ASP803  -1.0000
     9 H1          13.3384   -11.2421    -0.4775 H            1 ASP803   0.0000
    10 H2          12.6712   -12.6803    -0.8686 H            1 ASP803   0.0000
    11 HA          13.2202   -10.5906    -2.6995 H            1 ASP803   0.0000
    12 HB1         11.7405   -12.9881    -3.2437 H            1 ASP803   0.0000
    13 HB2         13.3194   -12.8210    -3.6255 H            1 ASP803   0.0000
    14 N           10.9000    -9.6210    -2.7300 N.am         2 LEU804   0.0000
    15 CA           9.7360    -8.8010    -2.3730 C.3          2 LEU804   0.0000
    16 C            8.4150    -9.1420    -3.1100 C.2          2 LEU804   0.0000
    17 O            7.3520    -8.6270    -2.7480 O.2          2 LEU804   0.0000
    18 CB          10.0750    -7.3110    -2.5810 C.3          2 LEU804   0.0000
    19 CG          11.3580    -6.7690    -1.9320 C.3          2 LEU804   0.0000
    20 CD1         11.4810    -5.2470    -2.0700 C.3          2 LEU804   0.0000
    21 CD2         11.4100    -7.1680    -0.4830 C.3          2 LEU804   0.0000
    22 H6          11.4436    -9.3639    -3.5290 H            2 LEU804   0.0000
    23 H7           9.5710    -8.9325    -1.3955 H            2 LEU804   0.0000
    24 H8           9.3101    -6.7781    -2.2193 H            2 LEU804   0.0000
    25 H9          10.1517    -7.1576    -3.5662 H            2 LEU804   0.0000
    26 HG          12.1395    -7.1860    -2.3961 H            2 LEU804   0.0000
    27 HD11        12.3275    -4.9402    -1.6349 H            2 LEU804   0.0000
    28 HD12        11.4959    -5.0003    -3.0390 H            2 LEU804   0.0000
    29 HD13        10.6999    -4.8078    -1.6261 H            2 LEU804   0.0000
    30 HD21        12.2475    -6.8114    -0.0689 H            2 LEU804   0.0000
    31 HD22        10.6158    -6.7925    -0.0052 H            2 LEU804   0.0000
    32 HD23        11.4013    -8.1654    -0.4114 H            2 LEU804   0.0000
    33 N            8.4670   -10.0040    -4.1210 N.am         3 TYR805   0.0000
    34 CA           7.2780   -10.2460    -4.9320 C.3          3 TYR805   0.0000
    35 C            6.7450   -11.6910    -4.8770 C.2          3 TYR805   0.0000
    36 O            5.7840   -12.0300    -5.5730 O.2          3 TYR805   0.0000
    37 CB           7.5410    -9.8280    -6.3820 C.3          3 TYR805   0.0000
    38 CG           8.0090    -8.3960    -6.5190 C.ar         3 TYR805   0.0000
    39 CD1          9.3660    -8.0800    -6.4850 C.ar         3 TYR805   0.0000
    40 CD2          7.0980    -7.3570    -6.6370 C.ar         3 TYR805   0.0000
    41 CE1          9.7970    -6.7610    -6.5920 C.ar         3 TYR805   0.0000
    42 CE2          7.5170    -6.0350    -6.7500 C.ar         3 TYR805   0.0000
    43 CZ           8.8640    -5.7490    -6.7240 C.ar         3 TYR805   0.0000
    44 OH           9.2680    -4.4560    -6.8330 O.3          3 TYR805   0.0000
    45 H17          9.3192   -10.4856    -4.3253 H            3 TYR805   0.0000
    46 H18          6.5550    -9.6514    -4.5802 H            3 TYR805   0.0000
    47 H19          6.6934    -9.9355    -6.9016 H            3 TYR805   0.0000
    48 H20          8.2438   -10.4290    -6.7626 H            3 TYR805   0.0000
    49 HD1         10.0398    -8.8117    -6.3822 H            3 TYR805   0.0000
    50 HD2          6.1193    -7.5623    -6.6410 H            3 TYR805   0.0000
    51 HE1         10.7736    -6.5468    -6.5736 H            3 TYR805   0.0000
    52 HE2          6.8466    -5.2997    -6.8491 H            3 TYR805   0.0000
    53 HH           8.5904    -3.7268    -6.9283 H            3 TYR805   0.0000
    54 N            7.3220   -12.5240    -4.0170 N.am         4 GLY806   0.0000
    55 CA           6.9120   -13.9180    -3.9340 C.3          4 GLY806   0.0000
    56 C            5.4660   -14.2020    -3.5330 C.2          4 GLY806   0.0000
    57 O            5.1350   -14.4440    -2.3690 O.co2        4 GLY806   0.0000
    58 OXT          4.5720   -14.2260    -4.3830 O.co2        4 GLY806  -1.0000
    59 H26          8.0488   -12.1879    -3.4180 H            4 GLY806   0.0000
    60 HA1          7.5029   -14.3651    -3.2625 H            4 GLY806   0.0000
    61 HA2          7.0600   -14.3284    -4.8338 H            4 GLY806   0.0000
    62 H29         14.1460   -12.2808    -1.4448 H            4 GLY806   0.0000
@<TRIPOS>BOND
     1    1    2       1
     2    2    5       1
     3    2    3       1
     4    5    6       1
     5    6    7      ar
     6    6    8      ar
     7    3    4       2
     8    1    9       1
     9    1   10       1
    10    2   11       1
    11    3   14      am
    12    5   12       1
    13    5   13       1
    14   14   15       1
    15   15   18       1
    16   15   16       1
    17   18   19       1
    18   19   20       1
    19   19   21       1
    20   16   17       2
    21   21   32       1
    22   14   22       1
    23   15   23       1
    24   16   33      am
    25   18   24       1
    26   18   25       1
    27   19   26       1
    28   20   27       1
    29   20   28       1
    30   20   29       1
    31   21   30       1
    32   21   31       1
    33   33   34       1
    34   34   37       1
    35   34   35       1
    36   37   38       1
    37   38   39      ar
    38   38   40      ar
    39   39   41      ar
    40   41   43      ar
    41   43   44       1
    42   43   42      ar
    43   42   40      ar
    44   35   36       2
    45   44   53       1
    46   33   45       1
    47   34   46       1
    48   35   54      am
    49   37   47       1
    50   37   48       1
    51   39   49       1
    52   40   50       1
    53   41   51       1
    54   42   52       1
    55   54   55       1
    56   55   56       1
    57   56   57      ar
    58   56   58      ar
    59   55   61       1
    60   54   59       1
    61   55   60       1
    62    1   62       1
@<TRIPOS>SUBSTRUCTURE
     1 ASP803      1 RESIDUE           4 B     ASP     0 **** ASP B 803
     2 LEU804     14 RESIDUE           4 B     LEU     0 **** LEU B 804
     3 TYR805     33 RESIDUE           4 B     TYR     0 **** TYR B 805
     4 GLY806     54 RESIDUE           4 B     GLY     0 **** GLY B 806
