@<TRIPOS>MOLECULE
2e5m_NAP_1_ligand
   73    77     1     0     0
SMALL
NO_CHARGES


@<TRIPOS>ATOM
     1 PA         -26.0830    17.8500    24.3960 P.3          1 NAP450   0.0000
     2 O1A        -27.2010    16.8980    24.2520 O.co2        1 NAP450   0.0000
     3 O2A        -24.6470    17.1700    24.1900 O.co2        1 NAP450  -1.0000
     4 O5B        -26.1950    19.1080    25.4150 O.3          1 NAP450   0.0000
     5 C5B        -27.4790    19.2110    26.0750 C.3          1 NAP450   0.0000
     6 C4B        -27.7200    18.2190    27.2520 C.3          1 NAP450   0.0000
     7 O4B        -26.5310    17.4410    27.6610 O.3          1 NAP450   0.0000
     8 C3B        -28.2450    18.9750    28.5310 C.3          1 NAP450   0.0000
     9 O3B        -29.6320    18.8190    28.7980 O.3          1 NAP450   0.0000
    10 C2B        -27.2980    18.5280    29.7270 C.3          1 NAP450   0.0000
    11 O2B        -27.9790    17.4950    30.5560 O.3          1 NAP450   0.0000
    12 C1B        -26.1130    17.8630    29.0190 C.3          1 NAP450   0.0000
    13 N9A        -24.8520    18.7590    28.9950 N.pl3        1 NAP450   0.0000
    14 C8A        -24.0400    19.0080    27.8900 C.2          1 NAP450   0.0000
    15 N7A        -23.0550    19.7960    28.2290 N.2          1 NAP450   0.0000
    16 C5A        -23.1520    20.1030    29.5270 C.ar         1 NAP450   0.0000
    17 C6A        -22.3700    20.8960    30.4080 C.ar         1 NAP450   0.0000
    18 N6A        -21.2390    21.5420    29.9360 N.pl3        1 NAP450   0.0000
    19 N1A        -22.7420    21.0160    31.7250 N.ar         1 NAP450   0.0000
    20 C2A        -23.8550    20.3780    32.1990 C.ar         1 NAP450   0.0000
    21 N3A        -24.6210    19.6080    31.3690 N.ar         1 NAP450   0.0000
    22 C4A        -24.2950    19.4520    30.0450 C.ar         1 NAP450   0.0000
    23 O3         -26.2040    18.6890    22.9260 O.3          1 NAP450   0.0000
    24 PN         -27.7180    18.8340    22.2300 P.3          1 NAP450   0.0000
    25 O1N        -28.8890    18.9750    23.2510 O.co2        1 NAP450   0.0000
    26 O2N        -27.9950    18.1320    20.8640 O.co2        1 NAP450  -1.0000
    27 O5D        -27.5950    20.4510    21.7360 O.3          1 NAP450   0.0000
    28 C5D        -28.0340    20.7840    20.3780 C.3          1 NAP450   0.0000
    29 C4D        -26.8180    20.9970    19.4340 C.3          1 NAP450   0.0000
    30 O4D        -25.5500    20.5890    20.0530 O.3          1 NAP450   0.0000
    31 C3D        -26.9640    20.1530    18.1680 C.3          1 NAP450   0.0000
    32 O3D        -27.5610    20.9180    17.0980 O.3          1 NAP450   0.0000
    33 C2D        -25.5300    19.6820    17.8510 C.3          1 NAP450   0.0000
    34 O2D        -25.0820    20.0920    16.5370 O.3          1 NAP450   0.0000
    35 C1D        -24.6200    20.2940    18.9720 C.3          1 NAP450   0.0000
    36 N1N        -23.3370    19.5810    19.2870 N.ar         1 NAP450   1.0000
    37 C2N        -22.1610    20.1910    18.9490 C.ar         1 NAP450   0.0000
    38 C3N        -20.8970    19.5620    19.2250 C.ar         1 NAP450   0.0000
    39 C7N        -19.6020    20.2550    18.8390 C.2          1 NAP450   0.0000
    40 O7N        -19.6240    21.3490    18.2920 O.2          1 NAP450   0.0000
    41 N7N        -18.4150    19.6700    19.0930 N.am         1 NAP450   0.0000
    42 C4N        -20.8920    18.2650    19.8740 C.ar         1 NAP450   0.0000
    43 C5N        -22.1310    17.6490    20.2140 C.ar         1 NAP450   0.0000
    44 C6N        -23.3570    18.3230    19.9120 C.ar         1 NAP450   0.0000
    45 P2B        -28.7420    18.0750    31.8930 P.3          1 NAP450   0.0000
    46 O1X        -30.0020    18.7270    31.4880 O.co2        1 NAP450   0.0000
    47 O2X        -29.0620    16.8650    32.9030 O.co2        1 NAP450  -1.0000
    48 O3X        -27.8000    19.1390    32.6530 O.co2        1 NAP450  -1.0000
    49 H5B1       -28.1896    19.0518    25.3896 H            1 NAP450   0.0000
    50 H5B2       -27.5650    20.1401    26.4347 H            1 NAP450   0.0000
    51 H4B        -28.4268    17.5715    26.9671 H            1 NAP450   0.0000
    52 H3B        -28.0845    19.9504    28.3802 H            1 NAP450   0.0000
    53 H5         -29.7903    18.8773    29.7837 H            1 NAP450   0.0000
    54 H2B        -27.0065    19.3097    30.2783 H            1 NAP450   0.0000
    55 H1B        -25.8832    17.0361    29.5322 H            1 NAP450   0.0000
    56 H8A        -24.1894    18.6380    26.9731 H            1 NAP450   0.0000
    57 H6A1       -20.6873    22.1008    30.5552 H            1 NAP450   0.0000
    58 H6A2       -20.9743    21.4495    28.9761 H            1 NAP450   0.0000
    59 H2A        -24.1106    20.4756    33.1608 H            1 NAP450   0.0000
    60 H5D1       -28.5764    21.6237    20.4067 H            1 NAP450   0.0000
    61 H5D2       -28.5956    20.0363    20.0237 H            1 NAP450   0.0000
    62 H4D        -26.7641    21.9628    19.1805 H            1 NAP450   0.0000
    63 H3D        -27.5371    19.3576    18.3653 H            1 NAP450   0.0000
    64 H16        -28.0803    20.3068    16.5008 H            1 NAP450   0.0000
    65 H2D        -25.4941    18.6844    17.9108 H            1 NAP450   0.0000
    66 H18        -24.1506    19.7617    16.3843 H            1 NAP450   0.0000
    67 H1D        -24.3403    21.1872    18.6198 H            1 NAP450   0.0000
    68 H2N        -22.1798    21.0863    18.5040 H            1 NAP450   0.0000
    69 H7N1       -17.5654    20.1309    18.8366 H            1 NAP450   0.0000
    70 H7N2       -18.3837    18.7749    19.5379 H            1 NAP450   0.0000
    71 H4N        -20.0272    17.8074    20.0809 H            1 NAP450   0.0000
    72 H5N        -22.1439    16.7539    20.6596 H            1 NAP450   0.0000
    73 H6N        -24.2308    17.8970    20.1467 H            1 NAP450   0.0000
@<TRIPOS>BOND
     1    1    2      ar
     2    1    3      ar
     3    1    4       1
     4    1   23       1
     5    4    5       1
     6    5    6       1
     7    6    7       1
     8    6    8       1
     9    7   12       1
    10    8    9       1
    11    8   10       1
    12   10   11       1
    13   10   12       1
    14   11   45       1
    15   12   13       1
    16   13   14       1
    17   13   22       1
    18   14   15       2
    19   15   16       1
    20   16   17      ar
    21   16   22      ar
    22   17   18       1
    23   17   19      ar
    24   19   20      ar
    25   20   21      ar
    26   21   22      ar
    27   23   24       1
    28   24   25      ar
    29   24   26      ar
    30   24   27       1
    31   27   28       1
    32   28   29       1
    33   29   30       1
    34   29   31       1
    35   30   35       1
    36   31   32       1
    37   31   33       1
    38   33   34       1
    39   33   35       1
    40   35   36       1
    41   36   37      ar
    42   36   44      ar
    43   37   38      ar
    44   38   39       1
    45   38   42      ar
    46   39   40       2
    47   39   41      am
    48   42   43      ar
    49   43   44      ar
    50   45   46      ar
    51   45   47      ar
    52   45   48      ar
    53   43   72       1
    54    5   49       1
    55    5   50       1
    56    6   51       1
    57    8   52       1
    58    9   53       1
    59   10   54       1
    60   12   55       1
    61   14   56       1
    62   18   57       1
    63   18   58       1
    64   20   59       1
    65   44   73       1
    66   28   60       1
    67   28   61       1
    68   29   62       1
    69   31   63       1
    70   32   64       1
    71   33   65       1
    72   34   66       1
    73   35   67       1
    74   37   68       1
    75   41   69       1
    76   41   70       1
    77   42   71       1
@<TRIPOS>SUBSTRUCTURE
     1 NAP450      1 GROUP             4 A     NAP     0 **** NAP A 450
