@<TRIPOS>MOLECULE
4jnq_FDA_1_ligand
   84    89     1     0     0
SMALL
NO_CHARGES


@<TRIPOS>ATOM
     1 PA          28.5250    12.9330    98.8800 P.3          1 FDA401   0.0000
     2 O1A         28.9970    13.5920    97.6170 O.co2        1 FDA401   0.0000
     3 O2A         27.2870    12.0700    98.7610 O.co2        1 FDA401  -1.0000
     4 O5B         28.1650    14.0800    99.9510 O.3          1 FDA401   0.0000
     5 C5B         29.0420    15.1700   100.1690 C.3          1 FDA401   0.0000
     6 C4B         28.3770    16.0900   101.1890 C.3          1 FDA401   0.0000
     7 O4B         29.3740    17.0240   101.6020 O.3          1 FDA401   0.0000
     8 C3B         27.2230    16.9220   100.6640 C.3          1 FDA401   0.0000
     9 O3B         26.1050    16.8020   101.5420 O.3          1 FDA401   0.0000
    10 C2B         27.7550    18.3490   100.5580 C.3          1 FDA401   0.0000
    11 O2B         26.6940    19.2930   100.7250 O.3          1 FDA401   0.0000
    12 C1B         28.8080    18.3230   101.6700 C.3          1 FDA401   0.0000
    13 N9A         29.8400    19.3520   101.5600 N.pl3        1 FDA401   0.0000
    14 C8A         30.7720    19.5650   100.6000 C.2          1 FDA401   0.0000
    15 N7A         31.4730    20.6950   100.9050 N.2          1 FDA401   0.0000
    16 C5A         30.9770    21.1880   102.0670 C.ar         1 FDA401   0.0000
    17 C6A         31.2580    22.3280   102.9430 C.ar         1 FDA401   0.0000
    18 N6A         32.2490    23.1680   102.5890 N.pl3        1 FDA401   0.0000
    19 N1A         30.5000    22.4650   104.0600 N.ar         1 FDA401   0.0000
    20 C2A         29.5200    21.6130   104.3580 C.ar         1 FDA401   0.0000
    21 N3A         29.2020    20.5320   103.6100 N.ar         1 FDA401   0.0000
    22 C4A         29.9060    20.3010   102.4870 C.ar         1 FDA401   0.0000
    23 N1          26.6330     4.9800    94.3610 N.2          1 FDA401   0.0000
    24 C2          25.9850     3.8540    94.6700 C.2          1 FDA401   0.0000
    25 O2          26.5120     3.1630    95.5520 O.2          1 FDA401   0.0000
    26 N3          24.8390     3.4540    94.0280 N.pl3        1 FDA401   0.0000
    27 C4          24.2960     4.1720    93.0170 C.2          1 FDA401   0.0000
    28 O4          23.2270     3.8370    92.3950 O.2          1 FDA401   0.0000
    29 C4X         24.9530     5.4430    92.6640 C.2          1 FDA401   0.0000
    30 N5          24.4580     6.2400    91.6830 N.2          1 FDA401   0.0000
    31 C5X         25.0840     7.3600    91.3120 C.ar         1 FDA401   0.0000
    32 C6          24.5390     8.1410    90.2770 C.ar         1 FDA401   0.0000
    33 C7          25.1580     9.3170    89.8830 C.ar         1 FDA401   0.0000
    34 C7M         24.5660    10.1680    88.7780 C.3          1 FDA401   0.0000
    35 C8          26.4030     9.7400    90.5430 C.ar         1 FDA401   0.0000
    36 C8M         27.0770    11.0230    90.0960 C.3          1 FDA401   0.0000
    37 C9          26.9610     8.9640    91.5660 C.ar         1 FDA401   0.0000
    38 C9A         26.3510     7.7790    91.9830 C.ar         1 FDA401   0.0000
    39 N10         26.8730     6.9720    93.0410 N.pl3        1 FDA401   0.0000
    40 C10         26.1940     5.7980    93.3920 C.2          1 FDA401   0.0000
    41 C1'         28.1150     7.3160    93.7820 C.3          1 FDA401   0.0000
    42 C2'         27.7060     7.9700    95.0990 C.3          1 FDA401   0.0000
    43 O2'         26.9430     9.1380    94.7810 O.3          1 FDA401   0.0000
    44 C3'         28.9160     8.4000    95.9330 C.3          1 FDA401   0.0000
    45 O3'         29.7140     7.2440    96.1300 O.3          1 FDA401   0.0000
    46 C4'         28.4560     8.9060    97.2640 C.3          1 FDA401   0.0000
    47 O4'         27.5050     9.9550    97.0870 O.3          1 FDA401   0.0000
    48 C5'         29.6310     9.3890    98.0920 C.3          1 FDA401   0.0000
    49 O5'         29.1330     9.6820    99.3730 O.3          1 FDA401   0.0000
    50 P           29.8920    10.7490   100.3060 P.3          1 FDA401   0.0000
    51 O1P         31.3360    10.4390   100.2680 O.co2        1 FDA401   0.0000
    52 O2P         29.1500    10.7750   101.5880 O.co2        1 FDA401  -1.0000
    53 O3P         29.8240    12.1410    99.4840 O.3          1 FDA401   0.0000
    54 H5B1        29.1952    15.6627    99.3124 H            1 FDA401   0.0000
    55 H5B2        29.9164    14.8399   100.5247 H            1 FDA401   0.0000
    56 H4B         28.0730    15.5537   101.9764 H            1 FDA401   0.0000
    57 H3B         26.9663    16.5957    99.7543 H            1 FDA401   0.0000
    58 H5          25.8626    17.7044   101.8983 H            1 FDA401   0.0000
    59 H2B         28.1970    18.4844    99.6713 H            1 FDA401   0.0000
    60 H7          26.6027    19.5239   101.6937 H            1 FDA401   0.0000
    61 H1B         28.3461    18.4254   102.5510 H            1 FDA401   0.0000
    62 H8A         30.9219    18.9873    99.7976 H            1 FDA401   0.0000
    63 H6A1        32.4663    23.9560   103.1651 H            1 FDA401   0.0000
    64 H6A2        32.7677    23.0039   101.7500 H            1 FDA401   0.0000
    65 H2A         28.9863    21.7834   105.1863 H            1 FDA401   0.0000
    66 H13         24.3922     2.6070    94.3159 H            1 FDA401   0.0000
    67 H14         23.6988     7.8457    89.8221 H            1 FDA401   0.0000
    68 H7M1        25.1430    10.9713    88.6304 H            1 FDA401   0.0000
    69 H7M2        24.5177     9.6328    87.9346 H            1 FDA401   0.0000
    70 H7M3        23.6466    10.4616    89.0396 H            1 FDA401   0.0000
    71 H8M1        27.9050    11.1706    90.6370 H            1 FDA401   0.0000
    72 H8M2        27.3192    10.9526    89.1283 H            1 FDA401   0.0000
    73 H8M3        26.4512    11.7917    90.2279 H            1 FDA401   0.0000
    74 H21         27.8087     9.2626    92.0045 H            1 FDA401   0.0000
    75 H1'1        28.6674     7.9521    93.2434 H            1 FDA401   0.0000
    76 H1'2        28.6436     6.4868    93.9636 H            1 FDA401   0.0000
    77 H2'         27.1427     7.3352    95.6279 H            1 FDA401   0.0000
    78 H25         26.6590     9.5909    95.6261 H            1 FDA401   0.0000
    79 H3'         29.4372     9.1057    95.4530 H            1 FDA401   0.0000
    80 H27         30.6741     7.5116    96.2114 H            1 FDA401   0.0000
    81 H4'         28.0119     8.1548    97.7523 H            1 FDA401   0.0000
    82 H29         27.5636    10.5914    97.8562 H            1 FDA401   0.0000
    83 H5'1        30.0274    10.2099    97.6809 H            1 FDA401   0.0000
    84 H5'2        30.3285     8.6747    98.1491 H            1 FDA401   0.0000
@<TRIPOS>BOND
     1    1    2      ar
     2    1    3      ar
     3    1    4       1
     4    1   53       1
     5    4    5       1
     6    5    6       1
     7    6    7       1
     8    6    8       1
     9    7   12       1
    10    8    9       1
    11    8   10       1
    12   10   11       1
    13   10   12       1
    14   12   13       1
    15   13   14       1
    16   13   22       1
    17   14   15       2
    18   15   16       1
    19   16   17      ar
    20   16   22      ar
    21   17   18       1
    22   17   19      ar
    23   19   20      ar
    24   20   21      ar
    25   21   22      ar
    26   23   24       1
    27   23   40       2
    28   24   25       2
    29   24   26       1
    30   26   27       1
    31   27   28       2
    32   27   29       1
    33   29   30       2
    34   29   40       1
    35   30   31       1
    36   31   32      ar
    37   31   38      ar
    38   32   33      ar
    39   33   34       1
    40   33   35      ar
    41   35   36       1
    42   35   37      ar
    43   37   38      ar
    44   38   39       1
    45   39   40       1
    46   39   41       1
    47   41   42       1
    48   42   43       1
    49   42   44       1
    50   44   45       1
    51   44   46       1
    52   46   47       1
    53   46   48       1
    54   48   49       1
    55   49   50       1
    56   50   51      ar
    57   50   52      ar
    58   50   53       1
    59   48   84       1
    60    5   54       1
    61    5   55       1
    62    6   56       1
    63    8   57       1
    64    9   58       1
    65   10   59       1
    66   11   60       1
    67   12   61       1
    68   14   62       1
    69   18   63       1
    70   18   64       1
    71   20   65       1
    72   26   66       1
    73   32   67       1
    74   34   68       1
    75   34   69       1
    76   34   70       1
    77   36   71       1
    78   36   72       1
    79   36   73       1
    80   37   74       1
    81   41   75       1
    82   41   76       1
    83   42   77       1
    84   43   78       1
    85   44   79       1
    86   45   80       1
    87   46   81       1
    88   47   82       1
    89   48   83       1
@<TRIPOS>SUBSTRUCTURE
     1 FDA401      1 GROUP             4 A     FDA     0 **** FDA A 401
