@<TRIPOS>MOLECULE
3hiy_UTP_2_ligand
   40    41     1     0     0
SMALL
NO_CHARGES


@<TRIPOS>ATOM
     1 PA          25.6180    33.9390    29.3070 P.3          1 UTP502   0.0000
     2 O1A         25.9620    32.4620    29.1420 O.co2        1 UTP502   0.0000
     3 O2A         25.7160    34.5490    30.6480 O.co2        1 UTP502  -1.0000
     4 O3A         26.3710    34.8810    28.2400 O.3          1 UTP502   0.0000
     5 O5'         24.1130    34.0140    28.7520 O.3          1 UTP502   0.0000
     6 PB          26.3650    34.5160    26.6700 P.3          1 UTP502   0.0000
     7 O1B         25.5020    33.3220    26.3930 O.co2        1 UTP502   0.0000
     8 O2B         26.0940    35.7380    25.8740 O.co2        1 UTP502  -1.0000
     9 O3B         27.9120    34.1640    26.3500 O.3          1 UTP502   0.0000
    10 PG          28.7490    32.8110    26.6690 P.3          1 UTP502   0.0000
    11 O1G         29.7830    33.3060    27.6540 O.co2        1 UTP502   0.0000
    12 O2G         29.2680    32.3910    25.3340 O.co2        1 UTP502  -1.0000
    13 O3G         27.7570    31.8120    27.2110 O.co2        1 UTP502  -1.0000
    14 C5'         23.1370    34.8220    29.3370 C.3          1 UTP502   0.0000
    15 C4'         22.2250    35.3630    28.2530 C.3          1 UTP502   0.0000
    16 O4'         21.0640    35.8540    28.9410 O.3          1 UTP502   0.0000
    17 C1'         20.9030    37.2430    28.7580 C.3          1 UTP502   0.0000
    18 C2'         21.5630    37.4330    27.4170 C.3          1 UTP502   0.0000
    19 O2'         20.7350    36.8050    26.4340 O.3          1 UTP502   0.0000
    20 C3'         22.7930    36.5810    27.5350 C.3          1 UTP502   0.0000
    21 O3'         23.2550    36.2760    26.2310 O.3          1 UTP502   0.0000
    22 N1          21.5550    38.0360    29.8320 N.pl3        1 UTP502   0.0000
    23 C6          22.5880    37.5900    30.5830 C.2          1 UTP502   0.0000
    24 C2          21.0610    39.2540    30.0540 C.2          1 UTP502   0.0000
    25 O2          20.1180    39.6330    29.3540 O.2          1 UTP502   0.0000
    26 N3          21.5670    40.0770    30.9910 N.pl3        1 UTP502   0.0000
    27 C4          22.5960    39.6730    31.7580 C.2          1 UTP502   0.0000
    28 O4          23.0970    40.5140    32.6900 O.2          1 UTP502   0.0000
    29 C5          23.1390    38.4060    31.5720 C.2          1 UTP502   0.0000
    30 H5'1        23.5751    35.5825    29.8163 H            1 UTP502   0.0000
    31 H5'2        22.6014    34.2827    29.9868 H            1 UTP502   0.0000
    32 H4'         21.9785    34.6457    27.6013 H            1 UTP502   0.0000
    33 H1'         19.9316    37.4732    28.7003 H            1 UTP502   0.0000
    34 H2'         21.7649    38.3901    27.2091 H            1 UTP502   0.0000
    35 H6          20.4364    37.4860    25.7654 H            1 UTP502   0.0000
    36 H3'         23.5008    37.0312    28.0794 H            1 UTP502   0.0000
    37 H8          24.2183    36.0108    26.2722 H            1 UTP502   0.0000
    38 H9          22.9576    36.6736    30.4291 H            1 UTP502   0.0000
    39 H10         21.1779    40.9895    31.1173 H            1 UTP502   0.0000
    40 H11         23.9040    38.0882    32.1322 H            1 UTP502   0.0000
@<TRIPOS>BOND
     1    1    2      ar
     2    1    3      ar
     3    1    4       1
     4    1    5       1
     5    4    6       1
     6    5   14       1
     7    6    7      ar
     8    6    8      ar
     9    6    9       1
    10    9   10       1
    11   10   11      ar
    12   10   12      ar
    13   10   13      ar
    14   14   15       1
    15   15   16       1
    16   15   20       1
    17   16   17       1
    18   17   18       1
    19   17   22       1
    20   18   19       1
    21   18   20       1
    22   20   21       1
    23   22   23       1
    24   22   24       1
    25   23   29       2
    26   24   25       2
    27   24   26       1
    28   26   27       1
    29   27   28       2
    30   27   29       1
    31   29   40       1
    32   26   39       1
    33   23   38       1
    34   21   37       1
    35   14   30       1
    36   14   31       1
    37   15   32       1
    38   17   33       1
    39   18   34       1
    40   19   35       1
    41   20   36       1
@<TRIPOS>SUBSTRUCTURE
     1 UTP502      1 GROUP             4 B     UTP     0 **** UTP B 502
