@<TRIPOS>MOLECULE
1f52_ADP_4_ligand
   39    41     1     0     0
SMALL
NO_CHARGES


@<TRIPOS>ATOM
     1 PB          -2.4070   -19.2400   -70.6140 P.3          1 ADP4474   0.0000
     2 O1B         -3.0610   -20.6270   -70.5010 O.co2        1 ADP4474   0.0000
     3 O2B         -1.0650   -19.0960   -69.9810 O.co2        1 ADP4474  -1.0000
     4 O3B         -3.4980   -18.1240   -70.0130 O.co2        1 ADP4474  -1.0000
     5 PA          -3.3850   -18.4220   -73.4870 P.3          1 ADP4474   0.0000
     6 O1A         -4.3030   -19.5260   -74.0200 O.co2        1 ADP4474   0.0000
     7 O2A         -4.2640   -17.2260   -72.9770 O.co2        1 ADP4474  -1.0000
     8 O3A         -2.3670   -18.9590   -72.2550 O.3          1 ADP4474   0.0000
     9 O5'         -2.5480   -17.9130   -74.8230 O.3          1 ADP4474   0.0000
    10 C5'         -2.0450   -16.7260   -75.3430 C.3          1 ADP4474   0.0000
    11 C4'         -0.9230   -15.7720   -75.0490 C.3          1 ADP4474   0.0000
    12 O4'          0.5710   -16.1790   -75.3300 O.3          1 ADP4474   0.0000
    13 C3'         -1.2010   -14.7470   -76.0540 C.3          1 ADP4474   0.0000
    14 O3'         -1.1860   -13.5120   -75.3760 O.3          1 ADP4474   0.0000
    15 C2'         -0.0710   -15.0650   -77.0750 C.3          1 ADP4474   0.0000
    16 O2'         -0.1600   -14.1890   -78.1710 O.3          1 ADP4474   0.0000
    17 C1'          1.0200   -14.9220   -76.0760 C.3          1 ADP4474   0.0000
    18 N9           2.5700   -14.7750   -76.6650 N.pl3        1 ADP4474   0.0000
    19 C8           3.5620   -13.8520   -76.1530 C.2          1 ADP4474   0.0000
    20 N7           4.7820   -13.8010   -76.7100 N.2          1 ADP4474   0.0000
    21 C5           4.6430   -14.7700   -77.6660 C.ar         1 ADP4474   0.0000
    22 C6           5.5790   -15.2420   -78.5890 C.ar         1 ADP4474   0.0000
    23 N6           6.6770   -14.7140   -78.5930 N.pl3        1 ADP4474   0.0000
    24 N1           5.2530   -16.2120   -79.4760 N.ar         1 ADP4474   0.0000
    25 C2           4.0150   -16.7520   -79.4360 C.ar         1 ADP4474   0.0000
    26 N3           2.9660   -16.4350   -78.5990 N.ar         1 ADP4474   0.0000
    27 C4           3.3350   -15.4100   -77.6870 C.ar         1 ADP4474   0.0000
    28 H5'1        -2.8442   -16.1262   -75.3038 H            1 ADP4474   0.0000
    29 H5'2        -1.8622   -16.9760   -76.2938 H            1 ADP4474   0.0000
    30 H4'         -1.0162   -15.3943   -74.1278 H            1 ADP4474   0.0000
    31 H3'         -2.0971   -14.9032   -76.4694 H            1 ADP4474   0.0000
    32 H5          -1.8085   -12.8748   -75.8303 H            1 ADP4474   0.0000
    33 H2'         -0.1379   -16.0141   -77.3827 H            1 ADP4474   0.0000
    34 H7          -0.7504   -14.5902   -78.8713 H            1 ADP4474   0.0000
    35 H1'          0.8223   -14.1265   -75.5032 H            1 ADP4474   0.0000
    36 H9           3.3378   -13.2528   -75.3845 H            1 ADP4474   0.0000
    37 H10          7.3771   -15.0211   -79.2376 H            1 ADP4474   0.0000
    38 H11          6.8781   -13.9735   -77.9517 H            1 ADP4474   0.0000
    39 H12          3.8359   -17.4771   -80.1010 H            1 ADP4474   0.0000
@<TRIPOS>BOND
     1    1    2      ar
     2    1    3      ar
     3    1    4      ar
     4    1    8       1
     5    5    6      ar
     6    5    7      ar
     7    5    8       1
     8    5    9       1
     9    9   10       1
    10   10   11       1
    11   11   12       1
    12   11   13       1
    13   12   17       1
    14   13   14       1
    15   13   15       1
    16   15   16       1
    17   15   17       1
    18   17   18       1
    19   18   19       1
    20   18   27       1
    21   19   20       2
    22   20   21       1
    23   21   22      ar
    24   21   27      ar
    25   22   23       1
    26   22   24      ar
    27   24   25      ar
    28   25   26      ar
    29   26   27      ar
    30   25   39       1
    31   23   38       1
    32   23   37       1
    33   10   28       1
    34   10   29       1
    35   11   30       1
    36   13   31       1
    37   14   32       1
    38   15   33       1
    39   16   34       1
    40   17   35       1
    41   19   36       1
@<TRIPOS>SUBSTRUCTURE
     1 ADP4474     1 GROUP             4 D     ADP     0 **** ADP D4474
