@<TRIPOS>MOLECULE
5jla_NAD_2_ligand
   70    74     1     0     0
SMALL
NO_CHARGES


@<TRIPOS>ATOM
     1 PA         -15.3340    -0.2620    29.2390 P.3          1 NAD401   0.0000
     2 O1A        -14.2430     0.3820    30.0590 O.co2        1 NAD401   0.0000
     3 O2A        -16.0980    -1.2740    30.0720 O.co2        1 NAD401  -1.0000
     4 O5B        -14.6920    -0.9700    27.8580 O.3          1 NAD401   0.0000
     5 C5B        -14.1670    -0.0980    26.9060 C.3          1 NAD401   0.0000
     6 C4B        -13.0550    -0.8440    26.0570 C.3          1 NAD401   0.0000
     7 O4B        -12.5000     0.0200    25.2780 O.3          1 NAD401   0.0000
     8 C3B        -11.9340    -1.3820    27.0150 C.3          1 NAD401   0.0000
     9 O3B        -11.7320    -2.7530    26.8050 O.3          1 NAD401   0.0000
    10 C2B        -10.7130    -0.5780    26.6420 C.3          1 NAD401   0.0000
    11 O2B         -9.4530    -1.4000    26.8260 O.3          1 NAD401   0.0000
    12 C1B        -10.9260    -0.2810    25.3740 C.3          1 NAD401   0.0000
    13 N9A        -10.2110     0.9170    24.9650 N.pl3        1 NAD401   0.0000
    14 C8A        -10.1600     2.1220    25.5590 C.2          1 NAD401   0.0000
    15 N7A         -9.3860     2.9030    24.8230 N.2          1 NAD401   0.0000
    16 C5A         -8.9520     2.1850    23.7820 C.ar         1 NAD401   0.0000
    17 C6A         -8.1120     2.5160    22.7170 C.ar         1 NAD401   0.0000
    18 N6A         -7.3660     3.6930    22.2740 N.pl3        1 NAD401   0.0000
    19 N1A         -7.8530     1.6200    21.8030 N.ar         1 NAD401   0.0000
    20 C2A         -8.3910     0.3590    21.9200 C.ar         1 NAD401   0.0000
    21 N3A         -9.2020     0.0080    22.9440 N.ar         1 NAD401   0.0000
    22 C4A         -9.4690     0.9610    23.8740 C.ar         1 NAD401   0.0000
    23 O3         -16.3520     0.9280    28.7230 O.3          1 NAD401   0.0000
    24 PN         -17.8280     0.7050    28.0450 P.3          1 NAD401   0.0000
    25 O1N        -18.8760     1.1260    29.0570 O.co2        1 NAD401   0.0000
    26 O2N        -18.0390    -0.7070    27.5010 O.co2        1 NAD401  -1.0000
    27 O5D        -17.9800     1.7270    26.7700 O.3          1 NAD401   0.0000
    28 C5D        -17.9150     1.2060    25.4390 C.3          1 NAD401   0.0000
    29 C4D        -18.5200     2.2990    24.5130 C.3          1 NAD401   0.0000
    30 O4D        -19.7480     2.5850    24.9330 O.3          1 NAD401   0.0000
    31 C3D        -17.7210     3.5990    24.6910 C.3          1 NAD401   0.0000
    32 O3D        -17.6400     4.2300    23.5080 O.3          1 NAD401   0.0000
    33 C2D        -18.6010     4.4300    25.6590 C.3          1 NAD401   0.0000
    34 O2D        -18.2010     5.8430    25.4890 O.3          1 NAD401   0.0000
    35 C1D        -19.8080     4.1600    25.2260 C.3          1 NAD401   0.0000
    36 N1N        -20.8500     4.4480    26.2020 N.ar         1 NAD401   1.0000
    37 C2N        -20.8700     3.8520    27.4280 C.ar         1 NAD401   0.0000
    38 C3N        -21.8840     4.1700    28.3360 C.ar         1 NAD401   0.0000
    39 C7N        -21.9630     3.5480    29.7070 C.2          1 NAD401   0.0000
    40 O7N        -22.7940     3.9570    30.5100 O.2          1 NAD401   0.0000
    41 N7N        -21.0920     2.4990    30.0640 N.am         1 NAD401   0.0000
    42 C4N        -22.8480     5.0920    27.9850 C.ar         1 NAD401   0.0000
    43 C5N        -22.8320     5.6770    26.7730 C.ar         1 NAD401   0.0000
    44 C6N        -21.8200     5.3410    25.8620 C.ar         1 NAD401   0.0000
    45 H5B1       -13.7606     0.6914    27.3660 H            1 NAD401   0.0000
    46 H5B2       -14.8986     0.2106    26.2981 H            1 NAD401   0.0000
    47 H4B        -13.4564    -1.5913    25.5274 H            1 NAD401   0.0000
    48 H3B        -12.1826    -1.2111    27.9684 H            1 NAD401   0.0000
    49 H5         -11.4534    -2.9075    25.8571 H            1 NAD401   0.0000
    50 H2B        -10.6661     0.2566    27.1908 H            1 NAD401   0.0000
    51 H7          -9.4961    -2.2112    26.2429 H            1 NAD401   0.0000
    52 H1B        -10.6806    -1.0528    24.7874 H            1 NAD401   0.0000
    53 H8A        -10.6241     2.3817    26.4058 H            1 NAD401   0.0000
    54 H6A1        -6.8203     3.6532    21.4370 H            1 NAD401   0.0000
    55 H6A2        -7.4016     4.5377    22.8080 H            1 NAD401   0.0000
    56 H2A         -8.1743    -0.3234    21.2219 H            1 NAD401   0.0000
    57 H5D1       -18.4465     0.3617    25.3712 H            1 NAD401   0.0000
    58 H5D2       -16.9653     1.0234    25.1846 H            1 NAD401   0.0000
    59 H4D        -18.5233     2.0035    23.5577 H            1 NAD401   0.0000
    60 H3D        -16.8152     3.4237    25.0767 H            1 NAD401   0.0000
    61 H17        -16.7887     4.7531    23.4668 H            1 NAD401   0.0000
    62 H2D        -18.4804     4.1308    26.6055 H            1 NAD401   0.0000
    63 H19        -17.2318     5.9444    25.7133 H            1 NAD401   0.0000
    64 H1D        -19.9866     4.6589    24.3780 H            1 NAD401   0.0000
    65 H2N        -20.1625     3.1904    27.6765 H            1 NAD401   0.0000
    66 H7N1       -21.1488     2.0900    30.9748 H            1 NAD401   0.0000
    67 H7N2       -20.4173     2.1637    29.4065 H            1 NAD401   0.0000
    68 H4N        -23.5670     5.3285    28.6385 H            1 NAD401   0.0000
    69 H5N        -23.5343     6.3442    26.5247 H            1 NAD401   0.0000
    70 H6N        -21.8107     5.7611    24.9546 H            1 NAD401   0.0000
@<TRIPOS>BOND
     1    1    2      ar
     2    1    3      ar
     3    1    4       1
     4    1   23       1
     5    4    5       1
     6    5    6       1
     7    6    7       1
     8    6    8       1
     9    7   12       1
    10    8    9       1
    11    8   10       1
    12   10   11       1
    13   10   12       1
    14   12   13       1
    15   13   14       1
    16   13   22       1
    17   14   15       2
    18   15   16       1
    19   16   17      ar
    20   16   22      ar
    21   17   18       1
    22   17   19      ar
    23   19   20      ar
    24   20   21      ar
    25   21   22      ar
    26   23   24       1
    27   24   25      ar
    28   24   26      ar
    29   24   27       1
    30   27   28       1
    31   28   29       1
    32   29   30       1
    33   29   31       1
    34   30   35       1
    35   31   32       1
    36   31   33       1
    37   33   34       1
    38   33   35       1
    39   35   36       1
    40   36   37      ar
    41   36   44      ar
    42   37   38      ar
    43   38   39       1
    44   38   42      ar
    45   39   40       2
    46   39   41      am
    47   42   43      ar
    48   43   44      ar
    49   44   70       1
    50    5   45       1
    51    5   46       1
    52    6   47       1
    53    8   48       1
    54    9   49       1
    55   10   50       1
    56   11   51       1
    57   12   52       1
    58   14   53       1
    59   18   54       1
    60   18   55       1
    61   20   56       1
    62   43   69       1
    63   28   57       1
    64   28   58       1
    65   29   59       1
    66   31   60       1
    67   32   61       1
    68   33   62       1
    69   34   63       1
    70   35   64       1
    71   37   65       1
    72   41   66       1
    73   41   67       1
    74   42   68       1
@<TRIPOS>SUBSTRUCTURE
     1 NAD401      1 GROUP             4 B     NAD     0 **** NAD B 401
