@<TRIPOS>MOLECULE
4ubf_ADP_4_ligand
   39    41     1     0     0
SMALL
NO_CHARGES


@<TRIPOS>ATOM
     1 PB         -12.8250   -51.9930    44.2560 P.3          1 ADP602   0.0000
     2 O1B        -13.0930   -52.2980    42.8030 O.co2        1 ADP602   0.0000
     3 O2B        -13.2330   -53.1090    45.1860 O.co2        1 ADP602  -1.0000
     4 O3B        -13.2920   -50.6270    44.6960 O.co2        1 ADP602  -1.0000
     5 PA         -10.4660   -51.7890    45.7760 P.3          1 ADP602   0.0000
     6 O1A         -9.5320   -52.9660    45.9340 O.co2        1 ADP602   0.0000
     7 O2A        -11.5410   -51.5670    46.8130 O.co2        1 ADP602  -1.0000
     8 O3A        -11.2130   -51.9410    44.3550 O.3          1 ADP602   0.0000
     9 O5'         -9.5590   -50.4680    45.6640 O.3          1 ADP602   0.0000
    10 C5'         -9.1110   -49.9540    44.4130 C.3          1 ADP602   0.0000
    11 C4'         -7.6820   -49.4640    44.6200 C.3          1 ADP602   0.0000
    12 O4'         -7.6820   -48.2690    45.4060 O.3          1 ADP602   0.0000
    13 C3'         -6.8610   -50.4950    45.3780 C.3          1 ADP602   0.0000
    14 O3'         -5.5740   -50.6110    44.7650 O.3          1 ADP602   0.0000
    15 C2'         -6.7020   -49.9250    46.7730 C.3          1 ADP602   0.0000
    16 O2'         -5.4280   -50.2590    47.3290 O.3          1 ADP602   0.0000
    17 C1'         -6.8640   -48.4260    46.5700 C.3          1 ADP602   0.0000
    18 N9          -7.5220   -47.7860    47.7380 N.pl3        1 ADP602   0.0000
    19 C8          -8.8380   -47.8180    48.0170 C.2          1 ADP602   0.0000
    20 N7          -9.1190   -47.1310    49.1540 N.2          1 ADP602   0.0000
    21 C5          -7.9580   -46.6400    49.6260 C.ar         1 ADP602   0.0000
    22 C6          -7.5340   -45.8220    50.7890 C.ar         1 ADP602   0.0000
    23 N6          -8.4310   -45.3790    51.7040 N.pl3        1 ADP602   0.0000
    24 N1          -6.2200   -45.5330    50.9070 N.ar         1 ADP602   0.0000
    25 C2          -5.3160   -45.9660    50.0080 C.ar         1 ADP602   0.0000
    26 N3          -5.6290   -46.7090    48.9320 N.ar         1 ADP602   0.0000
    27 C4          -6.9100   -47.0740    48.6880 C.ar         1 ADP602   0.0000
    28 H5'1        -9.6957   -49.1961    44.1237 H            1 ADP602   0.0000
    29 H5'2        -9.1304   -50.6737    43.7190 H            1 ADP602   0.0000
    30 H4'         -7.2573   -49.2826    43.7330 H            1 ADP602   0.0000
    31 H3'         -7.3282   -51.3788    45.4023 H            1 ADP602   0.0000
    32 H5          -4.9437   -49.9595    45.1873 H            1 ADP602   0.0000
    33 H2'         -7.4312   -50.2681    47.3650 H            1 ADP602   0.0000
    34 H7          -5.1217   -51.1356    46.9577 H            1 ADP602   0.0000
    35 H1'         -5.9695   -48.0070    46.4140 H            1 ADP602   0.0000
    36 H9          -9.5216   -48.2877    47.4584 H            1 ADP602   0.0000
    37 H10         -8.1232   -44.8289    52.4803 H            1 ADP602   0.0000
    38 H11         -9.4005   -45.6023    51.6026 H            1 ADP602   0.0000
    39 H12         -4.3568   -45.7209    50.1487 H            1 ADP602   0.0000
@<TRIPOS>BOND
     1    1    2      ar
     2    1    3      ar
     3    1    4      ar
     4    1    8       1
     5    5    6      ar
     6    5    7      ar
     7    5    8       1
     8    5    9       1
     9    9   10       1
    10   10   11       1
    11   11   12       1
    12   11   13       1
    13   12   17       1
    14   13   14       1
    15   13   15       1
    16   15   16       1
    17   15   17       1
    18   17   18       1
    19   18   19       1
    20   18   27       1
    21   19   20       2
    22   20   21       1
    23   21   22      ar
    24   21   27      ar
    25   22   23       1
    26   22   24      ar
    27   24   25      ar
    28   25   26      ar
    29   26   27      ar
    30   25   39       1
    31   23   38       1
    32   23   37       1
    33   10   28       1
    34   10   29       1
    35   11   30       1
    36   13   31       1
    37   14   32       1
    38   15   33       1
    39   16   34       1
    40   17   35       1
    41   19   36       1
@<TRIPOS>SUBSTRUCTURE
     1 ADP602      1 GROUP             4 C     ADP     0 **** ADP C 602
