@<TRIPOS>MOLECULE
2ycn_P61_2_ligand
   44    45     1     0     0
SMALL
NO_CHARGES


@<TRIPOS>ATOM
     1 C           20.5420    52.9610     6.7710 C.2          1 P61600   0.0000
     2 F           23.6330    52.9600     2.5300 F            1 P61600   0.0000
     3 N           21.7280    54.3830     8.3640 N.2          1 P61600   0.0000
     4 O           19.9680    52.8520     5.6420 O.co2        1 P61600   0.0000
     5 P           22.5390    59.6280     9.2060 P.3          1 P61600   0.0000
     6 N1          24.4760    54.9340    12.6490 N.pl3        1 P61600   0.0000
     7 C2          23.7430    53.9010    12.2020 C.2          1 P61600   0.0000
     8 C3          23.0000    54.0070    10.9090 C.2          1 P61600   0.0000
     9 O3          22.2980    52.9660    10.4570 O.3          1 P61600   0.0000
    10 C4          23.1270    55.2560    10.1280 C.2          1 P61600   0.0000
    11 C5          23.9630    56.3240    10.7390 C.2          1 P61600   0.0000
    12 C6          24.5880    56.1080    11.9790 C.2          1 P61600   0.0000
    13 CA          21.1980    54.2290     7.1300 C.2          1 P61600   0.0000
    14 CB          21.2890    55.3540     6.1240 C.3          1 P61600   0.0000
    15 CG          22.5180    55.1570     5.2700 C.ar         1 P61600   0.0000
    16 OH          25.7970    54.5270     2.7970 O.3          1 P61600   0.0000
    17 CZ          24.7300    54.7630     3.6220 C.ar         1 P61600   0.0000
    18 O1P         22.1880    58.8410     7.9630 O.co2        1 P61600   0.0000
    19 C2A         23.6380    52.6260    13.0030 C.3          1 P61600   0.0000
    20 O2P         21.4460    60.3480    10.0030 O.co2        1 P61600  -1.0000
    21 O3P         23.7650    60.4610     8.9700 O.co2        1 P61600  -1.0000
    22 C4A         22.4160    55.4350     8.8220 C.2          1 P61600   0.0000
    23 O4P         22.9270    58.4340    10.2520 O.3          1 P61600   0.0000
    24 C5A         24.1240    57.6530    10.0330 C.3          1 P61600   0.0000
    25 CD1         22.5230    54.1360     4.3070 C.ar         1 P61600   0.0000
    26 CD2         23.6170    55.9920     5.3960 C.ar         1 P61600   0.0000
    27 CE1         23.6280    53.9440     3.4820 C.ar         1 P61600   0.0000
    28 CE2         24.7460    55.7950     4.5610 C.ar         1 P61600   0.0000
    29 OXT         20.6420    51.9770     7.5630 O.co2        1 P61600  -1.0000
    30 H1          24.9622    54.8327    13.5169 H            1 P61600   0.0000
    31 H2          21.8007    53.0359     9.5923 H            1 P61600   0.0000
    32 H3          25.1332    56.8439    12.3805 H            1 P61600   0.0000
    33 HB1         21.3524    56.2285     6.6048 H            1 P61600   0.0000
    34 HB2         20.4745    55.3508     5.5439 H            1 P61600   0.0000
    35 HH          26.6164    55.0963     2.8641 H            1 P61600   0.0000
    36 H2A1        23.0553    51.9743    12.5175 H            1 P61600   0.0000
    37 H2A2        24.5493    52.2324    13.1241 H            1 P61600   0.0000
    38 H2A3        23.2399    52.8265    13.8982 H            1 P61600   0.0000
    39 H4A         22.4537    56.2977     8.3176 H            1 P61600   0.0000
    40 H5A1        24.2538    57.5014     9.0531 H            1 P61600   0.0000
    41 H5A2        24.9163    58.1382    10.4030 H            1 P61600   0.0000
    42 HD1         21.7251    53.5406     4.2125 H            1 P61600   0.0000
    43 HD2         23.6138    56.7291     6.0718 H            1 P61600   0.0000
    44 HE2         25.5456    56.3897     4.6442 H            1 P61600   0.0000
@<TRIPOS>BOND
     1    1    4      ar
     2    1   13       1
     3    1   29      ar
     4    2   27       1
     5    3   13       2
     6    3   22       1
     7    5   18      ar
     8    5   20      ar
     9    5   21      ar
    10    5   23       1
    11    6    7       1
    12    6   12       1
    13    7    8       2
    14    7   19       1
    15    8    9       1
    16    8   10       1
    17   10   11       1
    18   10   22       2
    19   11   12       2
    20   11   24       1
    21   13   14       1
    22   14   15       1
    23   15   25      ar
    24   15   26      ar
    25   16   17       1
    26   17   27      ar
    27   17   28      ar
    28   23   24       1
    29   25   27      ar
    30   26   28      ar
    31   25   42       1
    32    6   30       1
    33    9   31       1
    34   12   32       1
    35   14   33       1
    36   14   34       1
    37   16   35       1
    38   28   44       1
    39   19   36       1
    40   19   37       1
    41   19   38       1
    42   26   43       1
    43   22   39       1
    44   24   40       1
    45   24   41       1
@<TRIPOS>SUBSTRUCTURE
     1 P61600      1 GROUP             4 B     P61     0 **** P61 B 600
