@<TRIPOS>MOLECULE
1lpf_FAD_2_ligand
   84    89     1     0     0
SMALL
NO_CHARGES


@<TRIPOS>ATOM
     1 PA         -41.9490     2.1360   -63.7620 P.3          1 FAD480   0.0000
     2 O1A        -40.8150     1.4620   -63.0810 O.co2        1 FAD480   0.0000
     3 O2A        -41.7030     3.0140   -64.9300 O.co2        1 FAD480  -1.0000
     4 O5B        -42.9310     0.9370   -64.1710 O.3          1 FAD480   0.0000
     5 C5B        -43.9550     1.1730   -65.1730 C.3          1 FAD480   0.0000
     6 C4B        -44.3610    -0.0450   -66.0050 C.3          1 FAD480   0.0000
     7 O4B        -45.6610     0.1100   -66.6200 O.3          1 FAD480   0.0000
     8 C3B        -43.3640    -0.3460   -67.1190 C.3          1 FAD480   0.0000
     9 O3B        -42.9480    -1.7240   -67.0680 O.3          1 FAD480   0.0000
    10 C2B        -44.1460    -0.1110   -68.3990 C.3          1 FAD480   0.0000
    11 O2B        -43.6540    -0.9980   -69.4160 O.3          1 FAD480   0.0000
    12 C1B        -45.5520    -0.4570   -67.9410 C.3          1 FAD480   0.0000
    13 N9A        -46.6070     0.1010   -68.8090 N.pl3        1 FAD480   0.0000
    14 C8A        -46.8000     1.4020   -69.0710 C.2          1 FAD480   0.0000
    15 N7A        -47.9760     1.6000   -69.6700 N.2          1 FAD480   0.0000
    16 C5A        -48.4680     0.3780   -69.7970 C.ar         1 FAD480   0.0000
    17 C6A        -49.6730     0.1150   -70.4080 C.ar         1 FAD480   0.0000
    18 N6A        -50.5290     1.0930   -70.6950 N.pl3        1 FAD480   0.0000
    19 N1A        -49.9950    -1.1800   -70.4430 N.ar         1 FAD480   0.0000
    20 C2A        -49.2190    -2.1230   -69.9140 C.ar         1 FAD480   0.0000
    21 N3A        -48.0640    -1.8610   -69.3190 N.ar         1 FAD480   0.0000
    22 C4A        -47.6550    -0.5810   -69.2600 C.ar         1 FAD480   0.0000
    23 N1         -35.5620     5.0140   -57.6970 N.2          1 FAD480   0.0000
    24 C2         -35.2130     4.6430   -56.4450 C.2          1 FAD480   0.0000
    25 O2         -36.0610     4.6310   -55.5520 O.2          1 FAD480   0.0000
    26 N3         -33.9470     4.1130   -56.1930 N.pl3        1 FAD480   0.0000
    27 C4         -33.0870     3.9190   -57.2900 C.2          1 FAD480   0.0000
    28 O4         -31.9860     3.3850   -57.1100 O.2          1 FAD480   0.0000
    29 C4X        -33.5070     4.2800   -58.5850 C.2          1 FAD480   0.0000
    30 N5         -32.6270     4.2300   -59.5870 N.2          1 FAD480   0.0000
    31 C5X        -32.9550     4.6790   -60.7950 C.ar         1 FAD480   0.0000
    32 C6         -31.9740     4.5920   -61.7840 C.ar         1 FAD480   0.0000
    33 C7         -32.2340     4.9900   -63.0890 C.ar         1 FAD480   0.0000
    34 C7M        -31.1370     5.0180   -64.1530 C.3          1 FAD480   0.0000
    35 C8         -33.4840     5.4770   -63.3940 C.ar         1 FAD480   0.0000
    36 C8M        -33.8350     5.7580   -64.8520 C.3          1 FAD480   0.0000
    37 C9         -34.4170     5.6490   -62.3840 C.ar         1 FAD480   0.0000
    38 C9A        -34.1890     5.2860   -61.0400 C.ar         1 FAD480   0.0000
    39 N10        -35.0500     5.3030   -59.9970 N.pl3        1 FAD480   0.0000
    40 C10        -34.7450     4.8970   -58.7750 C.2          1 FAD480   0.0000
    41 C1'        -36.4020     5.6760   -60.3020 C.3          1 FAD480   0.0000
    42 C2'        -37.2310     4.3400   -60.3050 C.3          1 FAD480   0.0000
    43 O2'        -37.0600     3.4060   -61.3610 O.3          1 FAD480   0.0000
    44 C3'        -38.6780     4.8270   -60.3720 C.3          1 FAD480   0.0000
    45 O3'        -38.8510     5.7440   -59.2950 O.3          1 FAD480   0.0000
    46 C4'        -39.6930     3.6900   -60.1970 C.3          1 FAD480   0.0000
    47 O4'        -39.3050     2.5330   -60.9550 O.3          1 FAD480   0.0000
    48 C5'        -41.1170     4.0730   -60.6310 C.3          1 FAD480   0.0000
    49 O5'        -42.0150     2.9660   -60.3930 O.3          1 FAD480   0.0000
    50 P          -43.3500     2.7630   -61.2470 P.3          1 FAD480   0.0000
    51 O1P        -43.8610     1.4120   -60.9280 O.co2        1 FAD480   0.0000
    52 O2P        -44.1680     3.9480   -60.9140 O.co2        1 FAD480  -1.0000
    53 O3P        -42.8830     2.9220   -62.7580 O.3          1 FAD480   0.0000
    54 H5B1       -43.6158     1.8743   -65.8000 H            1 FAD480   0.0000
    55 H5B2       -44.7712     1.5113   -64.7046 H            1 FAD480   0.0000
    56 H4B        -44.3972    -0.8384   -65.3974 H            1 FAD480   0.0000
    57 H3B        -42.5752     0.2664   -67.0660 H            1 FAD480   0.0000
    58 H5         -43.7455    -2.3172   -67.1779 H            1 FAD480   0.0000
    59 H2B        -44.0848     0.8436   -68.6906 H            1 FAD480   0.0000
    60 H7         -43.7717    -1.9452   -69.1176 H            1 FAD480   0.0000
    61 H1B        -45.6522    -1.4506   -67.8884 H            1 FAD480   0.0000
    62 H8A        -46.1491     2.1274   -68.8472 H            1 FAD480   0.0000
    63 H6A1       -51.3995     0.8812   -71.1392 H            1 FAD480   0.0000
    64 H6A2       -50.3016     2.0396   -70.4665 H            1 FAD480   0.0000
    65 H2A        -49.5218    -3.0745   -69.9680 H            1 FAD480   0.0000
    66 H13        -33.6604     3.8789   -55.2640 H            1 FAD480   0.0000
    67 H14        -31.0690     4.2373   -61.5491 H            1 FAD480   0.0000
    68 H7M1       -31.5225     5.3309   -65.0211 H            1 FAD480   0.0000
    69 H7M2       -30.4106     5.6426   -63.8664 H            1 FAD480   0.0000
    70 H7M3       -30.7603     4.0988   -64.2676 H            1 FAD480   0.0000
    71 H8M1       -34.7713     6.1047   -64.9086 H            1 FAD480   0.0000
    72 H8M2       -33.2040     6.4403   -65.2212 H            1 FAD480   0.0000
    73 H8M3       -33.7598     4.9132   -65.3818 H            1 FAD480   0.0000
    74 H21        -35.3007     6.0527   -62.6209 H            1 FAD480   0.0000
    75 H1'1       -36.4472     6.1148   -61.1994 H            1 FAD480   0.0000
    76 H1'2       -36.7548     6.3021   -59.6067 H            1 FAD480   0.0000
    77 H2'        -37.0890     3.8706   -59.4335 H            1 FAD480   0.0000
    78 H25        -37.9147     2.9078   -61.5071 H            1 FAD480   0.0000
    79 H3'        -38.8384     5.2929   -61.2422 H            1 FAD480   0.0000
    80 H27        -39.7891     6.0904   -59.2996 H            1 FAD480   0.0000
    81 H4'        -39.7173     3.4375   -59.2297 H            1 FAD480   0.0000
    82 H29        -40.0201     2.3143   -61.6189 H            1 FAD480   0.0000
    83 H5'1       -41.1180     4.2979   -61.6054 H            1 FAD480   0.0000
    84 H5'2       -41.4221     4.8671   -60.1053 H            1 FAD480   0.0000
@<TRIPOS>BOND
     1    1    2      ar
     2    1    3      ar
     3    1    4       1
     4    1   53       1
     5    4    5       1
     6    5    6       1
     7    6    7       1
     8    6    8       1
     9    7   12       1
    10    8    9       1
    11    8   10       1
    12   10   11       1
    13   10   12       1
    14   12   13       1
    15   13   14       1
    16   13   22       1
    17   14   15       2
    18   15   16       1
    19   16   17      ar
    20   16   22      ar
    21   17   18       1
    22   17   19      ar
    23   19   20      ar
    24   20   21      ar
    25   21   22      ar
    26   23   24       1
    27   23   40       2
    28   24   25       2
    29   24   26       1
    30   26   27       1
    31   27   28       2
    32   27   29       1
    33   29   30       2
    34   29   40       1
    35   30   31       1
    36   31   32      ar
    37   31   38      ar
    38   32   33      ar
    39   33   34       1
    40   33   35      ar
    41   35   36       1
    42   35   37      ar
    43   37   38      ar
    44   38   39       1
    45   39   40       1
    46   39   41       1
    47   41   42       1
    48   42   43       1
    49   42   44       1
    50   44   45       1
    51   44   46       1
    52   46   47       1
    53   46   48       1
    54   48   49       1
    55   49   50       1
    56   50   51      ar
    57   50   52      ar
    58   50   53       1
    59   48   84       1
    60    5   54       1
    61    5   55       1
    62    6   56       1
    63    8   57       1
    64    9   58       1
    65   10   59       1
    66   11   60       1
    67   12   61       1
    68   14   62       1
    69   18   63       1
    70   18   64       1
    71   20   65       1
    72   26   66       1
    73   32   67       1
    74   34   68       1
    75   34   69       1
    76   34   70       1
    77   36   71       1
    78   36   72       1
    79   36   73       1
    80   37   74       1
    81   41   75       1
    82   41   76       1
    83   42   77       1
    84   43   78       1
    85   44   79       1
    86   45   80       1
    87   46   81       1
    88   47   82       1
    89   48   83       1
@<TRIPOS>SUBSTRUCTURE
     1 FAD480      1 GROUP             4 B     FAD     0 **** FAD B 480
