@<TRIPOS>MOLECULE
./coach420/2zhz/ligand.pdb
 61 62 0 0 0
SMALL
GASTEIGER

@<TRIPOS>ATOM
      1  PG        -5.3990  -12.6420   35.2050 P.3   201  ATP201      0.5373
      2  O1G       -5.5420  -11.1610   34.9410 O.3   201  ATP201     -0.1143
      3  O2G       -5.8790  -13.0740   36.5600 O.3   201  ATP201     -0.1143
      4  O3G       -6.1200  -13.4880   34.1740 O.2   201  ATP201     -0.2221
      5  PB        -2.7560  -12.7530   33.8930 P.3   201  ATP201      0.2277
      6  O1B       -3.4500  -12.0970   32.7400 O.2   201  ATP201     -0.5168
      7  O2B       -1.5300  -12.0410   34.4240 O.3   201  ATP201     -0.4368
      8  O3B       -3.7960  -13.0160   35.1470 O.3   201  ATP201     -0.2258
      9  PA        -3.2730  -15.4480   32.9070 P.3   201  ATP201      0.2189
     10  O1A       -4.0650  -14.9310   31.7530 O.2   201  ATP201     -0.5170
     11  O2A       -3.9840  -16.1040   34.0800 O.3   201  ATP201     -0.4371
     12  O3A       -2.2900  -14.2680   33.4930 O.3   201  ATP201     -0.2700
     13  O5'       -2.2250  -16.4890   32.2760 O.3   201  ATP201     -0.3112
     14  C5'       -1.2680  -17.1460   33.0850 C.3   201  ATP201      0.1813
     15  C4'        0.0560  -17.3300   32.3310 C.3   201  ATP201      0.1801
     16  O4'       -0.0750  -17.1330   30.9040 O.3   201  ATP201     -0.3306
     17  C3'        1.1320  -16.3760   32.8360 C.3   201  ATP201      0.2161
     18  O3'        2.1720  -17.1020   33.5100 O.3   201  ATP201     -0.2175
     19  C2'        1.6340  -15.6150   31.6170 C.3   201  ATP201      0.2337
     20  O2'        3.0470  -15.8160   31.4370 O.3   201  ATP201     -0.2155
     21  C1'        0.8350  -16.1280   30.4220 C.3   201  ATP201      0.2409
     22  N9         0.0750  -15.0240   29.7270 N.ar  201  ATP201     -0.2693
     23  C8        -0.7340  -14.1010   30.3150 C.ar  201  ATP201      0.1816
     24  N7        -1.2670  -13.2480   29.4070 N.ar  201  ATP201     -0.2193
     25  C5        -0.8090  -13.6070   28.1990 C.ar  201  ATP201      0.1518
     26  C6        -0.9750  -13.1260   26.7870 C.ar  201  ATP201      0.1919
     27  N6        -1.7680  -12.0540   26.5020 N.pl3 201  ATP201     -0.1054
     28  N1        -0.3010  -13.8000   25.7880 N.ar  201  ATP201     -0.2040
     29  C2         0.5000  -14.8760   26.0490 C.ar  201  ATP201      0.2016
     30  N3         0.6940  -15.3650   27.3120 N.ar  201  ATP201     -0.2048
     31  C4         0.0820  -14.7850   28.4070 C.ar  201  ATP201      0.1692
     32  O1G       16.9330  -26.1140    9.4270 O.3   202  ATP202      0.0000
     33  O2G       16.9650  -27.5600    7.3850 O.3   202  ATP202      0.0000
     34  O3G       14.8220  -26.7710    8.3090 O.3   202  ATP202      0.0000
     35  PB        15.7290  -23.7050    7.4520 P.3   202  ATP202      0.5373
     36  O1B       15.0150  -23.7240    8.7720 O.3   202  ATP202     -0.1143
     37  O2B       16.7810  -22.6450    7.2340 O.3   202  ATP202     -0.1143
     38  O3B       16.3810  -25.1580    7.1430 O.2   202  ATP202     -0.2221
     39  PA        13.3270  -24.4980    5.9960 P.3   202  ATP202      0.2231
     40  O1A       12.6220  -24.7330    7.2870 O.3   202  ATP202     -0.4370
     41  O2A       13.7090  -25.6710    5.1270 O.2   202  ATP202     -0.5169
     42  O3A       14.6600  -23.5720    6.2330 O.3   202  ATP202     -0.2261
     43  O5'       12.3970  -23.5020    5.1420 O.3   202  ATP202     -0.3111
     44  C5'       12.6230  -23.3030    3.7500 C.3   202  ATP202      0.1813
     45  C4'       12.5050  -21.8250    3.3930 C.3   202  ATP202      0.1801
     46  O4'       11.5140  -21.1370    4.1970 O.3   202  ATP202     -0.3306
     47  C3'       13.8300  -21.0840    3.5510 C.3   202  ATP202      0.2161
     48  O3'       14.3260  -20.6870    2.2670 O.3   202  ATP202     -0.2175
     49  C2'       13.5330  -19.9140    4.4790 C.3   202  ATP202      0.2337
     50  O2'       13.8120  -18.6800    3.8020 O.3   202  ATP202     -0.2155
     51  C1'       12.0680  -20.0020    4.8670 C.3   202  ATP202      0.2409
     52  N9        11.8810  -20.1850    6.3520 N.ar  202  ATP202     -0.2693
     53  C8        12.6590  -20.9210    7.1920 C.ar  202  ATP202      0.1816
     54  N7        12.2040  -20.8810    8.4660 N.ar  202  ATP202     -0.2193
     55  C5        11.1070  -20.1050    8.4700 C.ar  202  ATP202      0.1518
     56  C6        10.1190  -19.6360    9.4900 C.ar  202  ATP202      0.1919
     57  N6        10.2350  -20.0100   10.7830 N.pl3 202  ATP202     -0.1054
     58  N1         9.0930  -18.8170    9.0730 N.ar  202  ATP202     -0.2040
     59  C2         8.9550  -18.4260    7.7650 C.ar  202  ATP202      0.2016
     60  N3         9.8220  -18.8220    6.7870 N.ar  202  ATP202     -0.2048
     61  C4        10.8940  -19.6440    7.0720 C.ar  202  ATP202      0.1692
@<TRIPOS>BOND
     1     1     4    2
     2     1     2    1
     3     1     8    1
     4     1     3    1
     5     5     6    2
     6     5    12    1
     7     5     7    1
     8     5     8    1
     9     9    10    2
    10     9    13    1
    11     9    12    1
    12     9    11    1
    13    13    14    1
    14    14    15    1
    15    15    16    1
    16    15    17    1
    17    16    21    1
    18    17    19    1
    19    17    18    1
    20    19    21    1
    21    19    20    1
    22    21    22    1
    23    22    31   ar
    24    22    23   ar
    25    23    24   ar
    26    24    25   ar
    27    25    26   ar
    28    25    31   ar
    29    26    28   ar
    30    26    27    1
    31    28    29   ar
    32    29    30   ar
    33    30    31   ar
    34    35    42    1
    35    35    38    2
    36    35    37    1
    37    35    36    1
    38    39    41    2
    39    39    43    1
    40    39    42    1
    41    39    40    1
    42    43    44    1
    43    44    45    1
    44    45    47    1
    45    45    46    1
    46    46    51    1
    47    47    48    1
    48    47    49    1
    49    49    50    1
    50    49    51    1
    51    51    52    1
    52    52    61   ar
    53    52    53   ar
    54    53    54   ar
    55    54    55   ar
    56    55    61   ar
    57    55    56   ar
    58    56    58   ar
    59    56    57    1
    60    58    59   ar
    61    59    60   ar
    62    60    61   ar
