@<TRIPOS>MOLECULE
3ayg_HQO_1_ligand
   40    41     1     0     0
SMALL
NO_CHARGES


@<TRIPOS>ATOM
     1 C1          35.2160    33.8540    -4.3630 C.ar         1 HQO811   0.0000
     2 O1          34.3010    32.9200    -3.9830 O.3          1 HQO811   0.0000
     3 C2          34.9450    35.1950    -4.1850 C.ar         1 HQO811   0.0000
     4 C3          35.9040    36.1470    -4.5060 C.ar         1 HQO811   0.0000
     5 N1          37.1480    35.7470    -5.0170 N.ar         1 HQO811   1.0000
     6 O4          38.0980    36.6850    -5.3400 O.3          1 HQO811  -1.0000
     7 C5          37.4140    34.3880    -5.2020 C.ar         1 HQO811   0.0000
     8 C6          38.6420    33.9870    -5.7190 C.ar         1 HQO811   0.0000
     9 C7          38.8990    32.6320    -5.9180 C.ar         1 HQO811   0.0000
    10 C8          37.9330    31.6910    -5.5980 C.ar         1 HQO811   0.0000
    11 C9          36.7050    32.0950    -5.0770 C.ar         1 HQO811   0.0000
    12 C10         36.4510    33.4410    -4.8800 C.ar         1 HQO811   0.0000
    13 C11         35.6270    37.6220    -4.2080 C.3          1 HQO811   0.0000
    14 C12         35.8190    39.0060    -2.1200 C.3          1 HQO811   0.0000
    15 C13         36.5600    38.0870    -3.0940 C.3          1 HQO811   0.0000
    16 C14         35.5350    38.3000    -0.7940 C.3          1 HQO811   0.0000
    17 C15         34.7980    39.2510     0.1510 C.3          1 HQO811   0.0000
    18 C16         35.5890    39.4600     1.4440 C.3          1 HQO811   0.0000
    19 C17         34.9220    40.5240     2.3190 C.3          1 HQO811   0.0000
    20 H1          34.4961    31.9477    -4.1114 H            1 HQO811   0.0000
    21 H2          34.0574    35.4818    -3.8246 H            1 HQO811   0.0000
    22 H3          39.3374    34.6686    -5.9469 H            1 HQO811   0.0000
    23 H4          39.7792    32.3389    -6.2912 H            1 HQO811   0.0000
    24 H5          38.1178    30.7187    -5.7414 H            1 HQO811   0.0000
    25 H6          36.0097    31.4143    -4.8463 H            1 HQO811   0.0000
    26 H7          34.6766    37.7327    -3.9174 H            1 HQO811   0.0000
    27 H8          35.7896    38.1666    -5.0308 H            1 HQO811   0.0000
    28 H9          34.9518    39.2855    -2.5321 H            1 HQO811   0.0000
    29 H10         36.3805    39.8146    -1.9444 H            1 HQO811   0.0000
    30 H11         37.3287    38.5849    -3.4954 H            1 HQO811   0.0000
    31 H12         36.9023    37.2893    -2.5975 H            1 HQO811   0.0000
    32 H13         36.3988    38.0193    -0.3755 H            1 HQO811   0.0000
    33 H14         34.9683    37.4934    -0.9619 H            1 HQO811   0.0000
    34 H15         33.9037    38.8629     0.3737 H            1 HQO811   0.0000
    35 H16         34.6747    40.1333    -0.3033 H            1 HQO811   0.0000
    36 H17         36.5169    39.7558     1.2172 H            1 HQO811   0.0000
    37 H18         35.6280    38.5973     1.9482 H            1 HQO811   0.0000
    38 H19         35.4525    40.6463     3.1578 H            1 HQO811   0.0000
    39 H20         34.8833    41.3897     1.8199 H            1 HQO811   0.0000
    40 H21         33.9944    40.2312     2.5510 H            1 HQO811   0.0000
@<TRIPOS>BOND
     1    1    2       1
     2    1    3      ar
     3    1   12      ar
     4    3    4      ar
     5    4    5      ar
     6    4   13       1
     7    5    6       1
     8    5    7      ar
     9    7    8      ar
    10    7   12      ar
    11    8    9      ar
    12    9   10      ar
    13   10   11      ar
    14   11   12      ar
    15   13   15       1
    16   14   15       1
    17   14   16       1
    18   16   17       1
    19   17   18       1
    20   18   19       1
    21    2   20       1
    22    3   21       1
    23    8   22       1
    24    9   23       1
    25   10   24       1
    26   11   25       1
    27   13   26       1
    28   13   27       1
    29   14   28       1
    30   14   29       1
    31   15   30       1
    32   15   31       1
    33   16   32       1
    34   16   33       1
    35   17   34       1
    36   17   35       1
    37   18   36       1
    38   18   37       1
    39   19   38       1
    40   19   39       1
    41   19   40       1
@<TRIPOS>SUBSTRUCTURE
     1 HQO811      1 GROUP             4 A     HQO     0 **** HQO A 811
