@<TRIPOS>MOLECULE
1ndc_TYD_1_ligand
   38    39     1     0     0
SMALL
NO_CHARGES


@<TRIPOS>ATOM
     1 PA          16.6340   -11.4070   -21.7930 P.3          1 TYD160   0.0000
     2 O1A         16.2190   -12.8670   -21.8000 O.co2        1 TYD160   0.0000
     3 O2A         16.5240   -10.6100   -22.9980 O.co2        1 TYD160  -1.0000
     4 O3A         15.7730   -10.6410   -20.6700 O.3          1 TYD160   0.0000
     5 PB          14.6810   -11.0940   -19.5660 P.3          1 TYD160   0.0000
     6 O1B         15.4430   -11.0440   -18.3070 O.co2        1 TYD160   0.0000
     7 O2B         14.2870   -12.5140   -19.9070 O.co2        1 TYD160  -1.0000
     8 O3B         13.6200   -10.0960   -19.6910 O.co2        1 TYD160  -1.0000
     9 O5'         18.1380   -11.2840   -21.2520 O.3          1 TYD160   0.0000
    10 C5'         18.4570   -11.9070   -19.9960 C.3          1 TYD160   0.0000
    11 C4'         19.2070   -10.9600   -19.1070 C.3          1 TYD160   0.0000
    12 O4'         20.3500   -10.5410   -19.8110 O.3          1 TYD160   0.0000
    13 C3'         18.4900    -9.6550   -18.7810 C.3          1 TYD160   0.0000
    14 O3'         17.6560   -10.0540   -17.6990 O.3          1 TYD160   0.0000
    15 C2'         19.6480    -8.7650   -18.4080 C.3          1 TYD160   0.0000
    16 C1'         20.7410    -9.2030   -19.4150 C.3          1 TYD160   0.0000
    17 N1          20.7950    -8.3420   -20.6230 N.pl3        1 TYD160   0.0000
    18 C2          21.6030    -7.2080   -20.6130 C.2          1 TYD160   0.0000
    19 O2          22.3240    -6.9490   -19.6530 O.2          1 TYD160   0.0000
    20 N3          21.5730    -6.3900   -21.7560 N.pl3        1 TYD160   0.0000
    21 C4          20.8100    -6.6450   -22.8910 C.2          1 TYD160   0.0000
    22 O4          20.8790    -5.8810   -23.8470 O.2          1 TYD160   0.0000
    23 C5          19.9850    -7.8330   -22.8030 C.2          1 TYD160   0.0000
    24 C5M         19.1460    -8.2800   -23.9930 C.3          1 TYD160   0.0000
    25 C6          19.9610    -8.5900   -21.6940 C.2          1 TYD160   0.0000
    26 H5'1        19.0216   -12.7149   -20.1648 H            1 TYD160   0.0000
    27 H5'2        17.6095   -12.1816   -19.5417 H            1 TYD160   0.0000
    28 H4'         19.4757   -11.4233   -18.2625 H            1 TYD160   0.0000
    29 H3'         17.9681    -9.3002   -19.5567 H            1 TYD160   0.0000
    30 H5          16.7769   -10.3709   -18.0550 H            1 TYD160   0.0000
    31 H2'1        19.9392    -8.9262   -17.4650 H            1 TYD160   0.0000
    32 H2'2        19.4146    -7.7996   -18.5244 H            1 TYD160   0.0000
    33 H1'         21.6345    -9.2237   -18.9664 H            1 TYD160   0.0000
    34 H9          22.1403    -5.5665   -21.7530 H            1 TYD160   0.0000
    35 H5M1        18.6450    -9.1118   -23.7540 H            1 TYD160   0.0000
    36 H5M2        18.4975    -7.5578   -24.2337 H            1 TYD160   0.0000
    37 H5M3        19.7446    -8.4638   -24.7726 H            1 TYD160   0.0000
    38 H13         19.3200    -9.3558   -21.6429 H            1 TYD160   0.0000
@<TRIPOS>BOND
     1    1    2      ar
     2    1    3      ar
     3    1    4       1
     4    1    9       1
     5    4    5       1
     6    5    6      ar
     7    5    7      ar
     8    5    8      ar
     9    9   10       1
    10   10   11       1
    11   11   12       1
    12   11   13       1
    13   12   16       1
    14   13   14       1
    15   13   15       1
    16   15   16       1
    17   16   17       1
    18   17   18       1
    19   17   25       1
    20   18   19       2
    21   18   20       1
    22   20   21       1
    23   21   22       2
    24   21   23       1
    25   23   24       1
    26   23   25       2
    27   25   38       1
    28   24   37       1
    29   24   36       1
    30   10   26       1
    31   10   27       1
    32   11   28       1
    33   13   29       1
    34   14   30       1
    35   15   31       1
    36   15   32       1
    37   16   33       1
    38   20   34       1
    39   24   35       1
@<TRIPOS>SUBSTRUCTURE
     1 TYD160      1 GROUP             4 A     TYD     0 **** TYD A 160
