@<TRIPOS>MOLECULE
2ahc_VNL_1_ligand
   19    19     1     0     0
SMALL
NO_CHARGES


@<TRIPOS>ATOM
     1 C1          59.2800     5.7580     3.7470 C.ar         1 VNL166   0.0000
     2 CO1         60.6740     5.7490     3.8660 C.ar         1 VNL166   0.0000
     3 CO2         58.6580     4.8060     2.9540 C.ar         1 VNL166   0.0000
     4 CM1         61.4370     4.8320     3.1580 C.ar         1 VNL166   0.0000
     5 CM2         59.3920     3.8570     2.2260 C.ar         1 VNL166   0.0000
     6 OM          58.7760     2.7980     1.7040 O.3          1 VNL166   0.0000
     7 CZ          60.8240     3.8660     2.3370 C.ar         1 VNL166   0.0000
     8 CC          58.5110     6.6910     4.4690 C.2          1 VNL166   0.0000
     9 CV          57.4750     2.7710     1.4600 C.3          1 VNL166   0.0000
    10 O1          59.0990     7.5090     5.1580 O.co2        1 VNL166   0.0000
    11 O2          57.2830     6.7160     4.3590 O.co2        1 VNL166  -1.0000
    12 O3          61.5920     2.9200     1.7390 O.3          1 VNL166   0.0000
    13 HO1         61.1243     6.4095     4.4668 H            1 VNL166   0.0000
    14 HO2         57.6596     4.7953     2.8993 H            1 VNL166   0.0000
    15 HM1         62.4340     4.8572     3.2315 H            1 VNL166   0.0000
    16 HV1         57.2272     1.8838     1.0708 H            1 VNL166   0.0000
    17 HV2         56.9728     2.9128     2.3131 H            1 VNL166   0.0000
    18 HV3         57.2423     3.4960     0.8118 H            1 VNL166   0.0000
    19 H7          61.1684     2.2287     1.1537 H            1 VNL166   0.0000
@<TRIPOS>BOND
     1    1    2      ar
     2    1    3      ar
     3    1    8       1
     4    2    4      ar
     5    3    5      ar
     6    4    7      ar
     7    5    6       1
     8    5    7      ar
     9    6    9       1
    10    7   12       1
    11    8   10      ar
    12    8   11      ar
    13    2   13       1
    14    3   14       1
    15    4   15       1
    16    9   16       1
    17    9   17       1
    18    9   18       1
    19   12   19       1
@<TRIPOS>SUBSTRUCTURE
     1 VNL166      1 GROUP             4 A     VNL     0 **** VNL A 166
