@<TRIPOS>MOLECULE
1h94_NAD_1_ligand
   70    74     1     0     0
SMALL
NO_CHARGES


@<TRIPOS>ATOM
     1 PA          92.2430   -10.5100    35.7590 P.3          1 NAD799   0.0000
     2 O1A         91.1810    -9.7740    36.4970 O.co2        1 NAD799   0.0000
     3 O2A         92.2630   -11.9290    36.1720 O.co2        1 NAD799  -1.0000
     4 O5B         93.6880    -9.9960    36.2660 O.3          1 NAD799   0.0000
     5 C5B         94.5510    -9.5400    35.2170 C.3          1 NAD799   0.0000
     6 C4B         95.9900    -9.3260    35.6440 C.3          1 NAD799   0.0000
     7 O4B         96.0560    -8.3560    36.7110 O.3          1 NAD799   0.0000
     8 C3B         96.6490   -10.5810    36.1850 C.3          1 NAD799   0.0000
     9 O3B         97.7750   -10.8780    35.3690 O.3          1 NAD799   0.0000
    10 C2B         97.1050   -10.1870    37.5980 C.3          1 NAD799   0.0000
    11 O2B         98.3760   -10.7510    37.9010 O.3          1 NAD799   0.0000
    12 C1B         97.2020    -8.6740    37.4480 C.3          1 NAD799   0.0000
    13 N9A         97.3050    -7.9630    38.7370 N.pl3        1 NAD799   0.0000
    14 C8A         96.4130    -7.9430    39.7790 C.2          1 NAD799   0.0000
    15 N7A         96.7380    -7.1220    40.7530 N.2          1 NAD799   0.0000
    16 C5A         97.9100    -6.5710    40.3290 C.ar         1 NAD799   0.0000
    17 C6A         98.7090    -5.6480    40.9730 C.ar         1 NAD799   0.0000
    18 N6A         98.3670    -5.2940    42.2460 N.pl3        1 NAD799   0.0000
    19 N1A         99.8120    -5.2640    40.2800 N.ar         1 NAD799   0.0000
    20 C2A        100.0910    -5.8050    39.0970 C.ar         1 NAD799   0.0000
    21 N3A         99.4090    -6.7180    38.4240 N.ar         1 NAD799   0.0000
    22 C4A         98.3030    -7.0530    39.1010 C.ar         1 NAD799   0.0000
    23 O3          92.0760   -10.3990    34.1770 O.3          1 NAD799   0.0000
    24 PN          91.5670    -9.7460    32.8240 P.3          1 NAD799   0.0000
    25 O1N         90.4750   -10.5310    32.2020 O.co2        1 NAD799   0.0000
    26 O2N         92.6670    -9.5740    31.8380 O.co2        1 NAD799  -1.0000
    27 O5D         90.9300    -8.3250    33.0610 O.3          1 NAD799   0.0000
    28 C5D         89.5720    -8.0530    32.8630 C.3          1 NAD799   0.0000
    29 C4D         89.4800    -6.8430    31.9770 C.3          1 NAD799   0.0000
    30 O4D         88.2120    -6.8870    31.2790 O.3          1 NAD799   0.0000
    31 C3D         89.4300    -5.6200    32.8790 C.3          1 NAD799   0.0000
    32 O3D         90.3930    -4.6500    32.4790 O.3          1 NAD799   0.0000
    33 C2D         88.0070    -5.1050    32.7110 C.3          1 NAD799   0.0000
    34 O2D         87.9740    -3.6870    32.7410 O.3          1 NAD799   0.0000
    35 C1D         87.6620    -5.6080    31.3160 C.3          1 NAD799   0.0000
    36 N1N         86.2300    -5.6020    30.9540 N.ar         1 NAD799   1.0000
    37 C2N         85.3040    -5.1630    31.8130 C.ar         1 NAD799   0.0000
    38 C3N         83.9850    -5.4550    31.6400 C.ar         1 NAD799   0.0000
    39 C7N         82.8350    -5.2340    32.5420 C.2          1 NAD799   0.0000
    40 O7N         82.8375    -5.7900    33.6380 O.2          1 NAD799   0.0000
    41 N7N         81.9361    -4.3514    32.0359 N.am         1 NAD799   0.0000
    42 C4N         83.5880    -6.1070    30.4950 C.ar         1 NAD799   0.0000
    43 C5N         84.5330    -6.4740    29.5750 C.ar         1 NAD799   0.0000
    44 C6N         85.8370    -6.1900    29.8160 C.ar         1 NAD799   0.0000
    45 H5B1        94.1939    -8.6719    34.8724 H            1 NAD799   0.0000
    46 H5B2        94.5394   -10.2198    34.4837 H            1 NAD799   0.0000
    47 H4B         96.5168    -8.9902    34.8631 H            1 NAD799   0.0000
    48 H3B         96.0065   -11.3468    36.2107 H            1 NAD799   0.0000
    49 H5          97.9274   -11.8663    35.3581 H            1 NAD799   0.0000
    50 H2B         96.4226   -10.4407    38.2835 H            1 NAD799   0.0000
    51 H7          98.2502   -11.6492    38.3222 H            1 NAD799   0.0000
    52 H1B         98.0079    -8.4574    36.8970 H            1 NAD799   0.0000
    53 H8A         95.5860    -8.5050    39.7962 H            1 NAD799   0.0000
    54 H6A1        98.9210    -4.6282    42.7458 H            1 NAD799   0.0000
    55 H6A2        97.5624    -5.7004    42.6789 H            1 NAD799   0.0000
    56 H2A        100.9277    -5.4782    38.6576 H            1 NAD799   0.0000
    57 H5D1        89.1290    -7.8686    33.7403 H            1 NAD799   0.0000
    58 H5D2        89.1278    -8.8334    32.4228 H            1 NAD799   0.0000
    59 H4D         90.2484    -6.7967    31.3387 H            1 NAD799   0.0000
    60 H3D         89.5877    -5.8881    33.8294 H            1 NAD799   0.0000
    61 H17         90.3400    -3.8574    33.0865 H            1 NAD799   0.0000
    62 H2D         87.3961    -5.4966    33.3990 H            1 NAD799   0.0000
    63 H19         87.0312    -3.3731    32.6290 H            1 NAD799   0.0000
    64 H1D         88.1512    -5.0414    30.6529 H            1 NAD799   0.0000
    65 H2N         85.5853    -4.6099    32.5972 H            1 NAD799   0.0000
    66 H7N1        81.1774    -4.0301    32.6026 H            1 NAD799   0.0000
    67 H7N2        82.0327    -4.0226    31.0964 H            1 NAD799   0.0000
    68 H4N         82.6217    -6.3101    30.3370 H            1 NAD799   0.0000
    69 H5N         84.2649    -6.9460    28.7351 H            1 NAD799   0.0000
    70 H6N         86.5225    -6.4254    29.1270 H            1 NAD799   0.0000
@<TRIPOS>BOND
     1    1    2      ar
     2    1    3      ar
     3    1    4       1
     4    1   23       1
     5    4    5       1
     6    5    6       1
     7    6    7       1
     8    6    8       1
     9    7   12       1
    10    8    9       1
    11    8   10       1
    12   10   11       1
    13   10   12       1
    14   12   13       1
    15   13   14       1
    16   13   22       1
    17   14   15       2
    18   15   16       1
    19   16   17      ar
    20   16   22      ar
    21   17   18       1
    22   17   19      ar
    23   19   20      ar
    24   20   21      ar
    25   21   22      ar
    26   23   24       1
    27   24   25      ar
    28   24   26      ar
    29   24   27       1
    30   27   28       1
    31   28   29       1
    32   29   30       1
    33   29   31       1
    34   30   35       1
    35   31   32       1
    36   31   33       1
    37   33   34       1
    38   33   35       1
    39   35   36       1
    40   36   37      ar
    41   36   44      ar
    42   37   38      ar
    43   38   39       1
    44   38   42      ar
    45   39   40       2
    46   39   41      am
    47   42   43      ar
    48   43   44      ar
    49   44   70       1
    50    5   45       1
    51    5   46       1
    52    6   47       1
    53    8   48       1
    54    9   49       1
    55   10   50       1
    56   11   51       1
    57   12   52       1
    58   14   53       1
    59   18   54       1
    60   18   55       1
    61   20   56       1
    62   43   69       1
    63   28   57       1
    64   28   58       1
    65   29   59       1
    66   31   60       1
    67   32   61       1
    68   33   62       1
    69   34   63       1
    70   35   64       1
    71   37   65       1
    72   41   66       1
    73   41   67       1
    74   42   68       1
@<TRIPOS>SUBSTRUCTURE
     1 NAD799      1 GROUP             4 A     NAD     0 **** NAD A 799
