@<TRIPOS>MOLECULE
5ca0_ACP_5_ligand
   45    47     1     0     0
SMALL
NO_CHARGES


@<TRIPOS>ATOM
     1 PG           8.2220   208.6270    93.7650 P.3          1 ACP401   0.0000
     2 O1G          8.9210   209.6700    92.7690 O.co2        1 ACP401   0.0000
     3 O2G          8.7670   207.2880    93.5360 O.co2        1 ACP401  -1.0000
     4 O3G          6.6480   208.5790    93.5300 O.co2        1 ACP401  -1.0000
     5 PB          10.4180   208.9030    95.6670 P.3          1 ACP401   0.0000
     6 O1B         11.1210   209.8950    94.8420 O.co2        1 ACP401   0.0000
     7 O2B         10.8280   207.4740    95.1060 O.co2        1 ACP401  -1.0000
     8 C3B          8.6340   209.1090    95.4530 C.3          1 ACP401   0.0000
     9 PA          10.1990   209.9670    98.2470 P.3          1 ACP401   0.0000
    10 O1A          8.9400   210.5260    97.7340 O.co2        1 ACP401   0.0000
    11 O2A         11.1590   210.8170    98.9930 O.co2        1 ACP401  -1.0000
    12 O3A         10.9360   209.0840    97.1550 O.3          1 ACP401   0.0000
    13 O5'          9.7720   208.7940    99.1950 O.3          1 ACP401   0.0000
    14 C5'         10.1180   208.8720   100.5550 C.3          1 ACP401   0.0000
    15 C4'          9.0570   208.1450   101.3190 C.3          1 ACP401   0.0000
    16 O4'          9.2940   208.3340   102.6870 O.3          1 ACP401   0.0000
    17 C3'          7.7530   208.7900   100.9910 C.3          1 ACP401   0.0000
    18 O3'          6.9630   207.8090   100.3560 O.3          1 ACP401   0.0000
    19 C2'          7.0950   208.9930   102.2910 C.3          1 ACP401   0.0000
    20 O2'          6.2960   207.8320   102.3470 O.3          1 ACP401   0.0000
    21 C1'          8.1820   208.9110   103.3150 C.3          1 ACP401   0.0000
    22 N9           8.6490   210.2460   103.6640 N.pl3        1 ACP401   0.0000
    23 C8           9.3410   211.0360   102.8620 C.2          1 ACP401   0.0000
    24 N7           9.6380   212.1910   103.4740 N.2          1 ACP401   0.0000
    25 C5           9.1240   212.1360   104.6940 C.ar         1 ACP401   0.0000
    26 C6           9.0800   213.0270   105.8560 C.ar         1 ACP401   0.0000
    27 N6           9.6610   214.2360   105.8340 N.pl3        1 ACP401   0.0000
    28 N1           8.4520   212.5880   106.9440 N.ar         1 ACP401   0.0000
    29 C2           7.8840   211.3840   106.9620 C.ar         1 ACP401   0.0000
    30 N3           7.8860   210.5290   105.9400 N.ar         1 ACP401   0.0000
    31 C4           8.4830   210.8480   104.8060 C.ar         1 ACP401   0.0000
    32 H3B1         8.1441   208.5271    96.1021 H            1 ACP401   0.0000
    33 H3B2         8.3812   210.0645    95.6052 H            1 ACP401   0.0000
    34 H5'1        10.1560   209.8282   100.8453 H            1 ACP401   0.0000
    35 H5'2        11.0075   208.4415   100.7082 H            1 ACP401   0.0000
    36 H4'          9.0470   207.1726   101.0858 H            1 ACP401   0.0000
    37 H3'          7.8480   209.6306   100.4577 H            1 ACP401   0.0000
    38 H7           6.4340   207.3109   101.0431 H            1 ACP401   0.0000
    39 H2'          6.5669   209.8407   102.3402 H            1 ACP401   0.0000
    40 H9           6.1693   207.5603   103.3010 H            1 ACP401   0.0000
    41 H1'          7.8974   208.3922   104.1211 H            1 ACP401   0.0000
    42 H11          9.6068   210.8039   101.9263 H            1 ACP401   0.0000
    43 H12          9.6174   214.8264   106.6399 H            1 ACP401   0.0000
    44 H13         10.1376   214.5468   105.0117 H            1 ACP401   0.0000
    45 H14          7.4227   211.1010   107.8029 H            1 ACP401   0.0000
@<TRIPOS>BOND
     1    1    2      ar
     2    1    3      ar
     3    1    4      ar
     4    1    8       1
     5    5    6      ar
     6    5    7      ar
     7    5    8       1
     8    5   12       1
     9    9   10      ar
    10    9   11      ar
    11    9   12       1
    12    9   13       1
    13   13   14       1
    14   14   15       1
    15   15   16       1
    16   15   17       1
    17   16   21       1
    18   17   18       1
    19   17   19       1
    20   19   20       1
    21   19   21       1
    22   21   22       1
    23   22   23       1
    24   22   31       1
    25   23   24       2
    26   24   25       1
    27   25   26      ar
    28   25   31      ar
    29   26   27       1
    30   26   28      ar
    31   28   29      ar
    32   29   30      ar
    33   30   31      ar
    34   29   45       1
    35   27   44       1
    36   27   43       1
    37    8   32       1
    38    8   33       1
    39   23   42       1
    40   14   34       1
    41   14   35       1
    42   15   36       1
    43   17   37       1
    44   18   38       1
    45   19   39       1
    46   20   40       1
    47   21   41       1
@<TRIPOS>SUBSTRUCTURE
     1 ACP401      1 GROUP             4 F     ACP     0 **** ACP F 401
