@<TRIPOS>MOLECULE
1wop_FFO_1_ligand
   55    57     1     0     0
SMALL
NO_CHARGES


@<TRIPOS>ATOM
     1 N1           3.6470    26.2540    10.6130 N.2          1 FFO2887   0.0000
     2 C2           4.3320    27.4160    10.7100 C.2          1 FFO2887   0.0000
     3 NA2          4.4310    28.1560     9.5480 N.pl3        1 FFO2887   0.0000
     4 N3           4.8970    27.8340    11.9020 N.pl3        1 FFO2887   0.0000
     5 C4           4.7910    27.0870    13.0570 C.2          1 FFO2887   0.0000
     6 O4           5.3120    27.4760    14.1440 O.2          1 FFO2887   0.0000
     7 C4A          4.0300    25.7670    13.0140 C.2          1 FFO2887   0.0000
     8 N5           3.7770    24.7990    14.1020 N.am         1 FFO2887   0.0000
     9 C6           2.6540    23.8030    14.0620 C.3          1 FFO2887   0.0000
    10 C7           2.6020    23.2090    12.6230 C.3          1 FFO2887   0.0000
    11 N8           2.7750    24.2430    11.5940 N.pl3        1 FFO2887   0.0000
    12 C8A          3.4730    25.4260    11.6840 C.2          1 FFO2887   0.0000
    13 C9           1.3050    24.4850    14.3540 C.3          1 FFO2887   0.0000
    14 N10          1.2370    25.1130    15.6590 N.pl3        1 FFO2887   0.0000
    15 C11         -0.1070    29.0790    16.0000 C.ar         1 FFO2887   0.0000
    16 C12         -0.5480    28.1150    16.9440 C.ar         1 FFO2887   0.0000
    17 C13         -0.0800    26.7620    16.8280 C.ar         1 FFO2887   0.0000
    18 C14          0.8210    26.3960    15.7720 C.ar         1 FFO2887   0.0000
    19 C15          1.2570    27.3850    14.8450 C.ar         1 FFO2887   0.0000
    20 C16          0.7940    28.7030    14.9630 C.ar         1 FFO2887   0.0000
    21 C           -0.5720    30.5210    16.0170 C.2          1 FFO2887   0.0000
    22 O            0.0540    31.4260    15.4560 O.2          1 FFO2887   0.0000
    23 N           -1.7430    30.7860    16.6420 N.am         1 FFO2887   0.0000
    24 CA          -2.3320    32.1150    16.6940 C.3          1 FFO2887   0.0000
    25 CB          -3.0750    32.2190    15.3550 C.3          1 FFO2887   0.0000
    26 CG          -3.7530    33.5580    15.1330 C.3          1 FFO2887   0.0000
    27 CD          -4.5080    33.6420    13.8080 C.2          1 FFO2887   0.0000
    28 OE1         -5.0780    34.6970    13.5400 O.co2        1 FFO2887   0.0000
    29 OE2         -4.5680    32.6250    12.9390 O.co2        1 FFO2887  -1.0000
    30 CT          -3.2680    32.1280    17.8820 C.2          1 FFO2887   0.0000
    31 O1          -3.5970    33.1590    18.4490 O.co2        1 FFO2887   0.0000
    32 O2          -3.7540    30.9710    18.3250 O.co2        1 FFO2887  -1.0000
    33 C5A          4.5530    24.8060    15.1380 C.2          1 FFO2887   0.0000
    34 O5B          4.4820    24.0740    16.1280 O.2          1 FFO2887   0.0000
    35 HA21         4.9243    29.0259     9.5497 H            1 FFO2887   0.0000
    36 HA22         4.0094    27.8219     8.7050 H            1 FFO2887   0.0000
    37 H3           2.8195    23.0744    14.7267 H            1 FFO2887   0.0000
    38 H4           1.7160    22.7651    12.4888 H            1 FFO2887   0.0000
    39 H5           3.3319    22.5323    12.5265 H            1 FFO2887   0.0000
    40 H6           2.3291    24.0649    10.7168 H            1 FFO2887   0.0000
    41 H7           0.5840    23.7943    14.2986 H            1 FFO2887   0.0000
    42 H8           1.1491    25.1861    13.6582 H            1 FFO2887   0.0000
    43 H9           1.4975    24.5981    16.4757 H            1 FFO2887   0.0000
    44 H10         -1.1750    28.3739    17.6787 H            1 FFO2887   0.0000
    45 H11         -0.3830    26.0722    17.4855 H            1 FFO2887   0.0000
    46 H12          1.8916    27.1402    14.1120 H            1 FFO2887   0.0000
    47 H13          1.1021    29.3919    14.3069 H            1 FFO2887   0.0000
    48 H14         -2.2258    30.0329    17.0889 H            1 FFO2887   0.0000
    49 HA          -1.6293    32.8217    16.7763 H            1 FFO2887   0.0000
    50 HB1         -3.7730    31.5035    15.3254 H            1 FFO2887   0.0000
    51 HB2         -2.4164    32.0729    14.6168 H            1 FFO2887   0.0000
    52 HG1         -3.0543    34.2733    15.1458 H            1 FFO2887   0.0000
    53 HG2         -4.4018    33.7124    15.8781 H            1 FFO2887   0.0000
    54 H5A          5.2920    25.4797    15.1353 H            1 FFO2887   0.0000
    55 H21          5.3954    28.7006    11.9269 H            1 FFO2887   0.0000
@<TRIPOS>BOND
     1    1    2       2
     2    1   12       1
     3    2    3       1
     4    2    4       1
     5    4    5       1
     6    5    6       2
     7    5    7       1
     8    7    8       1
     9    7   12       2
    10    8    9       1
    11    8   33      am
    12    9   10       1
    13    9   13       1
    14   10   11       1
    15   11   12       1
    16   13   14       1
    17   14   18       1
    18   15   16      ar
    19   15   20      ar
    20   15   21       1
    21   16   17      ar
    22   17   18      ar
    23   18   19      ar
    24   19   20      ar
    25   21   22       2
    26   21   23      am
    27   23   24       1
    28   24   25       1
    29   24   30       1
    30   25   26       1
    31   26   27       1
    32   27   28      ar
    33   27   29      ar
    34   30   31      ar
    35   30   32      ar
    36   33   34       2
    37   33   54       1
    38    3   35       1
    39    3   36       1
    40    9   37       1
    41   10   38       1
    42   10   39       1
    43   11   40       1
    44   13   41       1
    45   13   42       1
    46   14   43       1
    47   16   44       1
    48   17   45       1
    49   19   46       1
    50   20   47       1
    51   23   48       1
    52   24   49       1
    53   25   50       1
    54   25   51       1
    55   26   52       1
    56   26   53       1
    57    4   55       1
@<TRIPOS>SUBSTRUCTURE
     1 FFO2887     1 GROUP             4 A     FFO     0 **** FFO A2887
