@<TRIPOS>MOLECULE
3dnd_LL2_1_ligand
   23    24     1     0     0
SMALL
NO_CHARGES


@<TRIPOS>ATOM
     1 C8           8.9100     9.9830     3.0430 C.ar         1 LL2351   0.0000
     2 C11          9.6680     8.9910     2.3900 C.ar         1 LL2351   0.0000
     3 C13         10.1440     7.8730     3.0960 C.ar         1 LL2351   0.0000
     4 C12          9.8370     7.8050     4.4640 C.ar         1 LL2351   0.0000
     5 C9           9.0870     8.7970     5.1390 C.ar         1 LL2351   0.0000
     6 C5           8.6130     9.9080     4.4230 C.ar         1 LL2351   0.0000
     7 C2           7.7840    11.0150     5.1230 C.3          1 LL2351   0.0000
     8 C1           6.2950    10.8290     4.7470 C.2          1 LL2351   0.0000
     9 S4           5.8850    10.8230     3.1450 S.3          1 LL2351   0.0000
    10 C3           5.1430    10.6460     5.4710 C.2          1 LL2351   0.0000
    11 N6           3.9720    10.4870     4.7480 N.2          1 LL2351   0.0000
    12 C7           4.1890    10.5520     3.3970 C.2          1 LL2351   0.0000
    13 N10          3.2970    10.4440     2.4100 N.pl3        1 LL2351   0.0000
    14 H1           8.5725    10.7624     2.5152 H            1 LL2351   0.0000
    15 H2           9.8692     9.0833     1.4148 H            1 LL2351   0.0000
    16 H3          10.6775     7.1580     2.6441 H            1 LL2351   0.0000
    17 H4          10.1640     7.0177     4.9867 H            1 LL2351   0.0000
    18 H5           8.8964     8.7077     6.1166 H            1 LL2351   0.0000
    19 H6           8.0984    11.9143     4.8191 H            1 LL2351   0.0000
    20 H7           7.8928    10.9413     6.1143 H            1 LL2351   0.0000
    21 H8           5.1489    10.6283     6.4708 H            1 LL2351   0.0000
    22 H9           2.3324    10.2877     2.6227 H            1 LL2351   0.0000
    23 H10          3.5932    10.5193     1.4579 H            1 LL2351   0.0000
@<TRIPOS>BOND
     1    1    2      ar
     2    1    6      ar
     3    2    3      ar
     4    3    4      ar
     5    4    5      ar
     6    5    6      ar
     7    6    7       1
     8    7    8       1
     9    8    9       1
    10    8   10       2
    11    9   12       1
    12   10   11       1
    13   11   12       2
    14   12   13       1
    15    1   14       1
    16    2   15       1
    17    3   16       1
    18    4   17       1
    19    5   18       1
    20    7   19       1
    21    7   20       1
    22   10   21       1
    23   13   22       1
    24   13   23       1
@<TRIPOS>SUBSTRUCTURE
     1 LL2351      1 GROUP             4 A     LL2     0 **** LL2 A 351
