@<TRIPOS>MOLECULE
3zkn_WZV_1_ligand
   51    53     1     0     0
SMALL
NO_CHARGES


@<TRIPOS>ATOM
     1 F30         36.1730    36.5170   155.1380 F            1 WZV1398   0.0000
     2 C28         35.3590    35.8610   154.3230 C.3          1 WZV1398   0.0000
     3 F31         36.0550    35.0040   153.5860 F            1 WZV1398   0.0000
     4 F29         34.4730    35.1970   155.0490 F            1 WZV1398   0.0000
     5 C27         34.6310    36.8490   153.4050 C.3          1 WZV1398   0.0000
     6 O26         33.9070    37.8260   154.1670 O.3          1 WZV1398   0.0000
     7 C18         32.7330    38.3720   153.6900 C.ar         1 WZV1398   0.0000
     8 C23         31.5330    37.6670   153.7770 C.ar         1 WZV1398   0.0000
     9 N22         30.3990    38.2120   153.3170 N.ar         1 WZV1398   0.0000
    10 C19         32.7340    39.6430   153.1190 C.ar         1 WZV1398   0.0000
    11 C20         31.5550    40.1990   152.6410 C.ar         1 WZV1398   0.0000
    12 C21         30.3900    39.4530   152.7590 C.ar         1 WZV1398   0.0000
    13 C24         29.1110    40.0040   152.2230 C.2          1 WZV1398   0.0000
    14 O25         28.3980    39.2620   151.5620 O.2          1 WZV1398   0.0000
    15 N13         28.7860    41.2650   152.4500 N.am         1 WZV1398   0.0000
    16 C7          27.6100    41.8090   151.9350 C.ar         1 WZV1398   0.0000
    17 C12         26.3640    41.1680   152.0440 C.ar         1 WZV1398   0.0000
    18 C8          27.7440    43.0320   151.2980 C.ar         1 WZV1398   0.0000
    19 C9          26.6100    43.6300   150.7550 C.ar         1 WZV1398   0.0000
    20 C10         25.3740    43.0020   150.8540 C.ar         1 WZV1398   0.0000
    21 C11         25.2280    41.7710   151.4980 C.ar         1 WZV1398   0.0000
    22 C2          23.7760    39.7110   152.0510 C.3          1 WZV1398   0.0000
    23 C3          24.4380    38.8000   151.0230 C.2          1 WZV1398   0.0000
    24 O16         25.1430    37.8710   151.4250 O.2          1 WZV1398   0.0000
    25 C14         22.9890    42.0660   152.4370 C.3          1 WZV1398   0.0000
    26 N15         23.2920    40.3870   148.0990 N.pl3        1 WZV1398   0.0000
    27 C5          23.6340    40.2050   149.3650 C.2          1 WZV1398   0.0000
    28 N6          23.3190    41.1290   150.1960 N.2          1 WZV1398   0.0000
    29 N4          24.2820    39.0700   149.7170 N.am         1 WZV1398   0.0000
    30 C17         24.7860    38.1340   148.7140 C.3          1 WZV1398   0.0000
    31 C1          23.8390    41.1610   151.5460 C.3          1 WZV1398   0.0000
    32 H1          33.9895    36.3452   152.8265 H            1 WZV1398   0.0000
    33 H2          35.3027    37.3159   152.8298 H            1 WZV1398   0.0000
    34 H3          31.5190    36.7534   154.1833 H            1 WZV1398   0.0000
    35 H4          33.5888    40.1577   153.0531 H            1 WZV1398   0.0000
    36 H5          31.5452    41.1082   152.2248 H            1 WZV1398   0.0000
    37 H6          29.3934    41.8381   153.0000 H            1 WZV1398   0.0000
    38 H7          26.2910    40.2859   152.5094 H            1 WZV1398   0.0000
    39 H8          28.6373    43.4763   151.2296 H            1 WZV1398   0.0000
    40 H9          26.6849    44.5135   150.2926 H            1 WZV1398   0.0000
    41 H10         24.5698    43.4421   150.4545 H            1 WZV1398   0.0000
    42 H11         24.2586    39.6384   152.9238 H            1 WZV1398   0.0000
    43 H12         22.8214    39.4398   152.1743 H            1 WZV1398   0.0000
    44 H13         22.0608    41.6987   152.4963 H            1 WZV1398   0.0000
    45 H14         23.3909    42.1056   153.3518 H            1 WZV1398   0.0000
    46 H15         22.9592    42.9859   152.0459 H            1 WZV1398   0.0000
    47 H16         23.5171    39.6927   147.4155 H            1 WZV1398   0.0000
    48 H17         22.8085    41.2188   147.8263 H            1 WZV1398   0.0000
    49 H18         24.5875    38.4866   147.7995 H            1 WZV1398   0.0000
    50 H19         25.7744    38.0285   148.8233 H            1 WZV1398   0.0000
    51 H20         24.3409    37.2464   148.8329 H            1 WZV1398   0.0000
@<TRIPOS>BOND
     1    1    2       1
     2    2    3       1
     3    2    4       1
     4    2    5       1
     5    5    6       1
     6    6    7       1
     7    7    8      ar
     8    7   10      ar
     9    8    9      ar
    10    9   12      ar
    11   10   11      ar
    12   11   12      ar
    13   12   13       1
    14   13   14       2
    15   13   15      am
    16   15   16       1
    17   16   17      ar
    18   16   18      ar
    19   17   21      ar
    20   18   19      ar
    21   19   20      ar
    22   20   21      ar
    23   21   31       1
    24   22   23       1
    25   22   31       1
    26   23   24       2
    27   23   29      am
    28   25   31       1
    29   26   27       1
    30   27   28       2
    31   27   29       1
    32   28   31       1
    33   29   30       1
    34    5   32       1
    35    5   33       1
    36    8   34       1
    37   10   35       1
    38   11   36       1
    39   15   37       1
    40   17   38       1
    41   18   39       1
    42   19   40       1
    43   20   41       1
    44   22   42       1
    45   22   43       1
    46   25   44       1
    47   25   45       1
    48   25   46       1
    49   26   47       1
    50   26   48       1
    51   30   49       1
    52   30   50       1
    53   30   51       1
@<TRIPOS>SUBSTRUCTURE
     1 WZV1398     1 GROUP             4 A     WZV     0 **** WZV A1398
