@<TRIPOS>MOLECULE
4yb7_ATP_2_ligand
   43    45     1     0     0
SMALL
NO_CHARGES


@<TRIPOS>ATOM
     1 PG         -13.4090    30.3150   -36.7490 P.3          1 ATP303   0.0000
     2 O1G        -14.0480    29.5790   -35.5930 O.co2        1 ATP303   0.0000
     3 O2G        -11.8710    30.1630   -36.8910 O.co2        1 ATP303  -1.0000
     4 O3G        -14.1530    30.1050   -38.0440 O.co2        1 ATP303  -1.0000
     5 PB         -14.2390    32.6770   -35.1370 P.3          1 ATP303   0.0000
     6 O1B        -15.4490    33.4920   -35.5360 O.co2        1 ATP303   0.0000
     7 O2B        -14.2400    31.8280   -33.8890 O.co2        1 ATP303  -1.0000
     8 O3B        -13.6560    31.9000   -36.4370 O.3          1 ATP303   0.0000
     9 PA         -12.8440    35.1720   -35.4920 P.3          1 ATP303   0.0000
    10 O1A        -14.1320    35.9660   -35.3680 O.co2        1 ATP303   0.0000
    11 O2A        -12.0950    35.0000   -36.8050 O.co2        1 ATP303  -1.0000
    12 O3A        -13.0260    33.6900   -34.8830 O.3          1 ATP303   0.0000
    13 O5'        -11.8140    35.7090   -34.3680 O.3          1 ATP303   0.0000
    14 C5'        -10.7190    34.8980   -33.9380 C.3          1 ATP303   0.0000
    15 C4'        -10.0140    35.5340   -32.7550 C.3          1 ATP303   0.0000
    16 O4'         -9.5850    36.8540   -33.0980 O.3          1 ATP303   0.0000
    17 C3'        -10.8660    35.6870   -31.4890 C.3          1 ATP303   0.0000
    18 O3'        -10.9540    34.5070   -30.6950 O.3          1 ATP303   0.0000
    19 C2'        -10.1180    36.8080   -30.7990 C.3          1 ATP303   0.0000
    20 O2'         -8.9880    36.3120   -30.0690 O.3          1 ATP303   0.0000
    21 C1'         -9.6110    37.6800   -31.9420 C.3          1 ATP303   0.0000
    22 N9         -10.4590    38.8590   -32.2190 N.pl3        1 ATP303   0.0000
    23 C8         -11.8040    38.9880   -32.0760 C.2          1 ATP303   0.0000
    24 N7         -12.2030    40.2460   -32.4190 N.2          1 ATP303   0.0000
    25 C5         -11.1120    40.9420   -32.7910 C.ar         1 ATP303   0.0000
    26 C6         -10.8100    42.3130   -33.2840 C.ar         1 ATP303   0.0000
    27 N6         -11.7880    43.2290   -33.4550 N.pl3        1 ATP303   0.0000
    28 N1          -9.5200    42.6380   -33.5560 N.ar         1 ATP303   0.0000
    29 C2          -8.5180    41.7430   -33.4010 C.ar         1 ATP303   0.0000
    30 N3          -8.7310    40.4720   -32.9680 N.ar         1 ATP303   0.0000
    31 C4          -9.9720    40.0210   -32.6580 C.ar         1 ATP303   0.0000
    32 H5'1       -10.0696    34.7967   -34.6916 H            1 ATP303   0.0000
    33 H5'2       -11.0623    33.9977   -33.6705 H            1 ATP303   0.0000
    34 H4'         -9.2083    34.9853   -32.5320 H            1 ATP303   0.0000
    35 H3'        -11.7843    35.9964   -31.7360 H            1 ATP303   0.0000
    36 H5         -10.1173    33.9699   -30.8022 H            1 ATP303   0.0000
    37 H2'        -10.7283    37.3266   -30.2001 H            1 ATP303   0.0000
    38 H7          -9.2668    36.0877   -29.1352 H            1 ATP303   0.0000
    39 H1'         -8.6814    37.9851   -31.7352 H            1 ATP303   0.0000
    40 H9         -12.4159    38.2617   -31.7629 H            1 ATP303   0.0000
    41 H10        -11.5627    44.1448   -33.7875 H            1 ATP303   0.0000
    42 H11        -12.7373    42.9913   -33.2491 H            1 ATP303   0.0000
    43 H12         -7.5831    42.0275   -33.6134 H            1 ATP303   0.0000
@<TRIPOS>BOND
     1    1    2      ar
     2    1    3      ar
     3    1    4      ar
     4    1    8       1
     5    5    6      ar
     6    5    7      ar
     7    5    8       1
     8    5   12       1
     9    9   10      ar
    10    9   11      ar
    11    9   12       1
    12    9   13       1
    13   13   14       1
    14   14   15       1
    15   15   16       1
    16   15   17       1
    17   16   21       1
    18   17   18       1
    19   17   19       1
    20   19   20       1
    21   19   21       1
    22   21   22       1
    23   22   23       1
    24   22   31       1
    25   23   24       2
    26   24   25       1
    27   25   26      ar
    28   25   31      ar
    29   26   27       1
    30   26   28      ar
    31   28   29      ar
    32   29   30      ar
    33   30   31      ar
    34   29   43       1
    35   27   42       1
    36   27   41       1
    37   23   40       1
    38   14   32       1
    39   14   33       1
    40   15   34       1
    41   17   35       1
    42   18   36       1
    43   19   37       1
    44   20   38       1
    45   21   39       1
@<TRIPOS>SUBSTRUCTURE
     1 ATP303      1 GROUP             4 B     ATP     0 **** ATP B 303
