@<TRIPOS>MOLECULE
./coach420/2gj5/ligand.pdb
 55 59 0 0 0
SMALL
GASTEIGER

@<TRIPOS>ATOM
      1  O         -0.3760    0.1720   24.5870 O.3   163  VD3163     -0.2231
      2  C1         0.7100    1.3280   21.4030 C.3   163  VD3163      0.0246
      3  C2         0.4350    1.6960   22.8140 C.3   163  VD3163      0.0372
      4  C3        -0.8320    1.0150   23.5110 C.3   163  VD3163      0.1527
      5  C4        -1.6350    0.1660   22.4900 C.3   163  VD3163      0.0369
      6  C5        -1.8270    0.8320   21.0410 C.3   163  VD3163      0.0208
      7  C7        -3.0170    0.7230   20.3760 C.3   163  VD3163      0.0041
      8  C8        -4.4060    1.3320   20.3160 C.3   163  VD3163      0.0003
      9  C9        -4.6770    2.6370   19.8890 C.3   163  VD3163      0.0000
     10  C10       -4.6590    2.1750   18.3350 C.3   163  VD3163      0.0000
     11  C6        -0.5570    1.5740   20.5560 C.2   163  VD3163     -0.0444
     12  C11       -4.3550    3.2200   17.3230 C.3   163  VD3163      0.0000
     13  C12       -4.6900    4.7220   17.6710 C.3   163  VD3163      0.0000
     14  C13       -4.3770    5.1520   19.1110 C.3   163  VD3163      0.0000
     15  C14       -3.7620    3.9740   19.9600 C.3   163  VD3163      0.0000
     16  C15       -3.5680    4.7120   21.3800 C.3   163  VD3163      0.0000
     17  C16       -3.2280    6.2690   21.0100 C.3   163  VD3163      0.0000
     18  C17       -3.2090    6.2670   19.4350 C.3   163  VD3163      0.0000
     19  C18       -5.8170    5.6360   19.6230 C.3   163  VD3163      0.0000
     20  C19       -0.5150    2.3310   19.5340 C.2   163  VD3163     -0.0091
     21  C20       -3.5620    7.7220   18.7240 C.3   163  VD3163      0.0000
     22  C21       -2.8980    7.7440   17.3660 C.3   163  VD3163      0.0000
     23  C22       -3.0400    9.0810   19.3210 C.3   163  VD3163      0.0000
     24  C23       -4.1810   10.2680   18.9580 C.3   163  VD3163      0.0000
     25  C24       -3.2030   11.4000   18.5670 C.3   163  VD3163      0.0000
     26  C25       -3.4180   12.8640   19.0180 C.3   163  VD3163      0.0000
     27  C26       -2.1790   12.8600   19.7030 C.3   163  VD3163      0.0000
     28  C27       -3.0820   14.1050   18.3630 C.3   163  VD3163      0.0000
     29  C1       -12.0470   13.2230   37.2910 C.3   164  VD3164      0.0260
     30  C2       -11.5680   14.2810   36.3810 C.3   164  VD3164      0.0050
     31  C3       -12.5520   14.7570   35.2270 C.3   164  VD3164      0.0050
     32  C4       -14.0050   14.3270   35.4860 C.3   164  VD3164      0.0257
     33  C5       -14.4870   14.0830   36.9730 C.2   164  VD3164     -0.0304
     34  C7       -15.8310   14.1700   37.2640 C.2   164  VD3164     -0.0304
     35  C8       -17.1380   14.6630   36.6690 C.3   164  VD3164      0.0300
     36  C9       -17.3210   15.9980   36.3560 C.3   164  VD3164      0.0260
     37  C10      -17.8380   15.6160   34.8650 C.2   164  VD3164     -0.0307
     38  C6       -13.3120   13.7370   37.9550 C.2   164  VD3164     -0.0265
     39  C11      -17.8360   16.6800   33.8190 C.2   164  VD3164     -0.0307
     40  C12      -17.5690   18.2030   34.2360 C.3   164  VD3164      0.0257
     41  C13      -16.7070   18.4430   35.4990 C.3   164  VD3164      0.0043
     42  C14      -16.2000   17.1030   36.1450 C.3   164  VD3164      0.0047
     43  C15      -15.4230   17.6780   37.4560 C.3   164  VD3164      0.0003
     44  C16      -14.7550   19.0430   36.9730 C.3   164  VD3164      0.0000
     45  C17      -15.1800   19.1120   35.4670 C.3   164  VD3164      0.0003
     46  C18      -17.7410   19.2360   36.4330 C.3   164  VD3164      0.0003
     47  C19      -13.3860   13.8290   39.2330 C.2   164  VD3164     -0.0049
     48  C20      -15.0550   20.6490   34.8440 C.3   164  VD3164      0.0000
     49  C21      -14.0530   20.5550   33.7060 C.3   164  VD3164      0.0000
     50  C22      -14.4110   21.8220   35.6970 C.3   164  VD3164      0.0000
     51  C23      -15.0350   23.2880   35.1690 C.3   164  VD3164      0.0000
     52  C24      -15.7660   23.7080   36.4820 C.3   164  VD3164      0.0000
     53  C25      -17.1930   23.2090   36.8560 C.3   164  VD3164      0.0000
     54  C26      -17.4050   24.3450   37.6690 C.3   164  VD3164      0.0000
     55  C27      -18.4530   23.3990   36.1710 C.3   164  VD3164      0.0000
@<TRIPOS>BOND
     1     1     4    1
     2     2    11    1
     3     2     3    1
     4     3     4    1
     5     4     5    1
     6     5     6    1
     7     6     7    1
     8     6    11    1
     9     7     8    1
    10     8     9    1
    11     9    10    1
    12     9    15    1
    13    10    12    1
    14    11    20    2
    15    12    13    1
    16    13    14    1
    17    14    18    1
    18    14    19    1
    19    14    15    1
    20    15    16    1
    21    16    17    1
    22    17    18    1
    23    18    21    1
    24    21    22    1
    25    21    23    1
    26    23    24    1
    27    24    25    1
    28    25    26    1
    29    26    28    1
    30    26    27    1
    31    29    30    1
    32    29    38    1
    33    30    31    1
    34    31    32    1
    35    32    33    1
    36    33    34    2
    37    33    38    1
    38    34    35    1
    39    35    36    1
    40    36    37    1
    41    36    42    1
    42    37    39    2
    43    38    47    2
    44    39    40    1
    45    40    41    1
    46    41    45    1
    47    41    42    1
    48    41    46    1
    49    42    43    1
    50    43    44    1
    51    44    45    1
    52    45    48    1
    53    48    49    1
    54    48    50    1
    55    50    51    1
    56    51    52    1
    57    52    53    1
    58    53    55    1
    59    53    54    1
