@<TRIPOS>MOLECULE
2q1s_NAI_1_ligand
   71    75     1     0     0
SMALL
NO_CHARGES


@<TRIPOS>ATOM
     1 PA          17.1740    12.8230    15.6410 P.3          1 NAI358   0.0000
     2 O1A         17.0500    12.2160    16.9920 O.co2        1 NAI358   0.0000
     3 O2A         16.0700    12.5490    14.5930 O.co2        1 NAI358  -1.0000
     4 O5B         18.5420    12.5140    14.9950 O.3          1 NAI358   0.0000
     5 C5B         19.6910    12.0300    15.6990 C.3          1 NAI358   0.0000
     6 C4B         20.1350    10.6860    15.1480 C.3          1 NAI358   0.0000
     7 O4B         21.2500    10.2290    15.9050 O.3          1 NAI358   0.0000
     8 C3B         19.0140     9.6220    15.2850 C.3          1 NAI358   0.0000
     9 O3B         18.7990     8.9770    14.0180 O.3          1 NAI358   0.0000
    10 C2B         19.6140     8.6240    16.2650 C.3          1 NAI358   0.0000
    11 O2B         19.2350     7.2220    16.1070 O.3          1 NAI358   0.0000
    12 C1B         21.1130     8.7950    16.0110 C.3          1 NAI358   0.0000
    13 N9A         21.9730     8.2980    17.0710 N.pl3        1 NAI358   0.0000
    14 C8A         21.7630     8.3890    18.4200 C.2          1 NAI358   0.0000
    15 N7A         22.8040     7.8530    19.0600 N.2          1 NAI358   0.0000
    16 C5A         23.7220     7.4130    18.1530 C.ar         1 NAI358   0.0000
    17 C6A         25.0320     6.7480    18.1690 C.ar         1 NAI358   0.0000
    18 N6A         25.6620     6.4060    19.2990 N.pl3        1 NAI358   0.0000
    19 N1A         25.6580     6.4600    16.9850 N.ar         1 NAI358   0.0000
    20 C2A         25.0310     6.7930    15.8240 C.ar         1 NAI358   0.0000
    21 N3A         23.8430     7.4070    15.6980 N.ar         1 NAI358   0.0000
    22 C4A         23.1360     7.7520    16.8320 C.ar         1 NAI358   0.0000
    23 O3          17.2090    14.3940    15.9380 O.3          1 NAI358   0.0000
    24 PN          17.4740    15.6320    14.9180 P.3          1 NAI358   0.0000
    25 O1N         16.5760    16.7170    15.2450 O.co2        1 NAI358   0.0000
    26 O2N         17.5890    15.0250    13.5430 O.co2        1 NAI358  -1.0000
    27 O5D         19.0040    16.0400    15.3390 O.3          1 NAI358   0.0000
    28 C5D         20.0900    16.0140    14.3970 C.3          1 NAI358   0.0000
    29 C4D         21.2110    16.8790    14.9770 C.3          1 NAI358   0.0000
    30 O4D         20.7740    18.2160    15.0260 O.3          1 NAI358   0.0000
    31 C3D         21.5290    16.5400    16.4340 C.3          1 NAI358   0.0000
    32 O3D         22.9540    16.5960    16.5820 O.3          1 NAI358   0.0000
    33 C2D         20.8330    17.6080    17.2210 C.3          1 NAI358   0.0000
    34 O2D         21.4780    17.8290    18.5040 O.3          1 NAI358   0.0000
    35 C1D         20.9790    18.8070    16.3260 C.3          1 NAI358   0.0000
    36 N1N         19.9940    19.8320    16.5530 N.pl3        1 NAI358   0.0000
    37 C2N         18.6810    19.6930    16.1750 C.2          1 NAI358   0.0000
    38 C3N         17.7610    20.7160    16.3860 C.2          1 NAI358   0.0000
    39 C7N         16.2950    20.5740    15.9880 C.2          1 NAI358   0.0000
    40 O7N         15.5500    21.5190    16.1840 O.2          1 NAI358   0.0000
    41 N7N         15.9220    19.4050    15.4080 N.am         1 NAI358   0.0000
    42 C4N         18.1860    21.9510    16.9460 C.3          1 NAI358   0.0000
    43 C5N         19.5630    22.0740    17.2900 C.2          1 NAI358   0.0000
    44 C6N         20.4380    21.0160    17.0490 C.2          1 NAI358   0.0000
    45 H5B1        19.4633    11.9282    16.6674 H            1 NAI358   0.0000
    46 H5B2        20.4375    12.6879    15.5995 H            1 NAI358   0.0000
    47 H4B         20.3946    10.7828    14.1872 H            1 NAI358   0.0000
    48 H3B         18.1696    10.0227    15.6405 H            1 NAI358   0.0000
    49 H5          19.6442     8.5313    13.7232 H            1 NAI358   0.0000
    50 H2B         19.4050     8.9161    17.1983 H            1 NAI358   0.0000
    51 H7          19.5091     6.9028    15.1998 H            1 NAI358   0.0000
    52 H1B         21.3613     8.3652    15.1429 H            1 NAI358   0.0000
    53 H8A         20.9586     8.7924    18.8562 H            1 NAI358   0.0000
    54 H6A1        26.5533     5.9546    19.2576 H            1 NAI358   0.0000
    55 H6A2        25.2414     6.6019    20.1849 H            1 NAI358   0.0000
    56 H2A         25.5044     6.5557    14.9757 H            1 NAI358   0.0000
    57 H5D1        19.7904    16.3851    13.5181 H            1 NAI358   0.0000
    58 H5D2        20.4116    15.0756    14.2704 H            1 NAI358   0.0000
    59 H4D         22.0346    16.8031    14.4149 H            1 NAI358   0.0000
    60 H3D         21.1801    15.6342    16.6745 H            1 NAI358   0.0000
    61 H17         23.3297    17.2652    15.9409 H            1 NAI358   0.0000
    62 H2D         19.8678    17.3791    17.3475 H            1 NAI358   0.0000
    63 H19         20.7973    18.1304    19.1717 H            1 NAI358   0.0000
    64 H1D         21.9016    19.1863    16.3966 H            1 NAI358   0.0000
    65 H2N         18.3811    18.8433    15.7413 H            1 NAI358   0.0000
    66 H7N1        14.9716    19.2657    15.1300 H            1 NAI358   0.0000
    67 H7N2        16.5976    18.6830    15.2587 H            1 NAI358   0.0000
    68 H4N1        17.6538    22.1018    17.7791 H            1 NAI358   0.0000
    69 H4N2        17.9770    22.6693    16.2824 H            1 NAI358   0.0000
    70 H5N         19.9017    22.9189    17.7041 H            1 NAI358   0.0000
    71 H6N         21.4118    21.1309    17.2451 H            1 NAI358   0.0000
@<TRIPOS>BOND
     1    1    2      ar
     2    1    3      ar
     3    1    4       1
     4    1   23       1
     5    4    5       1
     6    5    6       1
     7    6    7       1
     8    6    8       1
     9    7   12       1
    10    8    9       1
    11    8   10       1
    12   10   11       1
    13   10   12       1
    14   12   13       1
    15   13   14       1
    16   13   22       1
    17   14   15       2
    18   15   16       1
    19   16   17      ar
    20   16   22      ar
    21   17   18       1
    22   17   19      ar
    23   19   20      ar
    24   20   21      ar
    25   21   22      ar
    26   23   24       1
    27   24   25      ar
    28   24   26      ar
    29   24   27       1
    30   27   28       1
    31   28   29       1
    32   29   30       1
    33   29   31       1
    34   30   35       1
    35   31   32       1
    36   31   33       1
    37   33   34       1
    38   33   35       1
    39   35   36       1
    40   36   37       1
    41   36   44       1
    42   37   38       2
    43   38   39       1
    44   38   42       1
    45   39   40       2
    46   39   41      am
    47   42   43       1
    48   43   44       2
    49   44   71       1
    50    5   45       1
    51    5   46       1
    52    6   47       1
    53    8   48       1
    54    9   49       1
    55   10   50       1
    56   11   51       1
    57   12   52       1
    58   14   53       1
    59   18   54       1
    60   18   55       1
    61   20   56       1
    62   43   70       1
    63   28   57       1
    64   28   58       1
    65   29   59       1
    66   31   60       1
    67   32   61       1
    68   33   62       1
    69   34   63       1
    70   35   64       1
    71   37   65       1
    72   41   66       1
    73   41   67       1
    74   42   68       1
    75   42   69       1
@<TRIPOS>SUBSTRUCTURE
     1 NAI358      1 GROUP             4 A     NAI     0 **** NAI A 358
