@<TRIPOS>MOLECULE
3iah_NAP_2_ligand
   73    77     1     0     0
SMALL
NO_CHARGES


@<TRIPOS>ATOM
     1 PA          30.9250    -0.0900    41.2170 P.3          1 NAP254   0.0000
     2 O1A         31.7350    -0.3850    42.3940 O.co2        1 NAP254   0.0000
     3 O2A         31.4710    -0.5810    39.9350 O.co2        1 NAP254  -1.0000
     4 O5B         29.4880    -0.7550    41.3480 O.3          1 NAP254   0.0000
     5 C5B         28.5880    -0.8590    40.2810 C.3          1 NAP254   0.0000
     6 C4B         27.5560    -1.9190    40.6890 C.3          1 NAP254   0.0000
     7 O4B         26.6430    -2.0890    39.6070 O.3          1 NAP254   0.0000
     8 C3B         28.1780    -3.2640    40.9840 C.3          1 NAP254   0.0000
     9 O3B         27.5970    -3.8790    42.1020 O.3          1 NAP254   0.0000
    10 C2B         27.8610    -4.0420    39.7340 C.3          1 NAP254   0.0000
    11 O2B         27.8990    -5.4220    39.9660 O.3          1 NAP254   0.0000
    12 C1B         26.5090    -3.4400    39.3330 C.3          1 NAP254   0.0000
    13 N9A         26.3440    -3.7700    37.9370 N.pl3        1 NAP254   0.0000
    14 C8A         27.0950    -3.3750    36.8630 C.2          1 NAP254   0.0000
    15 N7A         26.5870    -3.9710    35.7610 N.2          1 NAP254   0.0000
    16 C5A         25.5300    -4.7370    36.1300 C.ar         1 NAP254   0.0000
    17 C6A         24.6600    -5.5470    35.4260 C.ar         1 NAP254   0.0000
    18 N6A         24.7770    -5.7000    34.1150 N.pl3        1 NAP254   0.0000
    19 N1A         23.6550    -6.2170    36.0900 N.ar         1 NAP254   0.0000
    20 C2A         23.5230    -6.0730    37.4540 C.ar         1 NAP254   0.0000
    21 N3A         24.3910    -5.2790    38.1660 N.ar         1 NAP254   0.0000
    22 C4A         25.3710    -4.6160    37.4930 C.ar         1 NAP254   0.0000
    23 O3          30.5940     1.4580    41.0270 O.3          1 NAP254   0.0000
    24 PN          29.9870     2.5640    41.9920 P.3          1 NAP254   0.0000
    25 O1N         29.7030     1.9270    43.2950 O.co2        1 NAP254   0.0000
    26 O2N         30.8560     3.7510    41.8300 O.co2        1 NAP254  -1.0000
    27 O5D         28.6290     2.8100    41.1910 O.3          1 NAP254   0.0000
    28 C5D         27.3680     2.8110    41.8290 C.3          1 NAP254   0.0000
    29 C4D         26.4690     3.8570    41.1760 C.3          1 NAP254   0.0000
    30 O4D         26.9920     5.1240    41.5020 O.3          1 NAP254   0.0000
    31 C3D         26.4130     3.8030    39.6530 C.3          1 NAP254   0.0000
    32 O3D         25.0710     4.0340    39.2180 O.3          1 NAP254   0.0000
    33 C2D         27.3120     4.9430    39.2180 C.3          1 NAP254   0.0000
    34 O2D         26.9970     5.4320    37.9320 O.3          1 NAP254   0.0000
    35 C1D         27.0290     5.9410    40.3060 C.3          1 NAP254   0.0000
    36 N1N         28.0130     7.0240    40.5070 N.ar         1 NAP254   1.0000
    37 C2N         29.2480     6.7350    41.0410 C.ar         1 NAP254   0.0000
    38 C3N         30.1700     7.7590    41.2140 C.ar         1 NAP254   0.0000
    39 C7N         31.5210     7.4770    41.8300 C.2          1 NAP254   0.0000
    40 O7N         32.3970     8.5230    41.8060 O.2          1 NAP254   0.0000
    41 N7N         31.8060     6.2950    42.3920 N.am         1 NAP254   0.0000
    42 C4N         29.8300     9.0730    40.8640 C.ar         1 NAP254   0.0000
    43 C5N         28.5680     9.3440    40.3240 C.ar         1 NAP254   0.0000
    44 C6N         27.6790     8.3080    40.1470 C.ar         1 NAP254   0.0000
    45 P2B         29.3730    -6.1590    39.9910 P.3          1 NAP254   0.0000
    46 O1X         29.8740    -6.1420    41.3830 O.co2        1 NAP254   0.0000
    47 O2X         29.1310    -7.5030    39.4340 O.co2        1 NAP254  -1.0000
    48 O3X         30.4790    -5.4260    39.2310 O.co2        1 NAP254  -1.0000
    49 H5B1        29.0670    -1.1438    39.4506 H            1 NAP254   0.0000
    50 H5B2        28.1374     0.0193    40.1213 H            1 NAP254   0.0000
    51 H4B         27.0573    -1.6015    41.4955 H            1 NAP254   0.0000
    52 H3B         29.1670    -3.1766    41.1037 H            1 NAP254   0.0000
    53 H5          27.6412    -4.8724    41.9965 H            1 NAP254   0.0000
    54 H2B         28.5362    -3.8142    39.0324 H            1 NAP254   0.0000
    55 H1B         25.7712    -3.8380    39.8781 H            1 NAP254   0.0000
    56 H8A         27.8798    -2.7558    36.8889 H            1 NAP254   0.0000
    57 H6A1        24.1383    -6.2903    33.6215 H            1 NAP254   0.0000
    58 H6A2        25.5040    -5.2251    33.6191 H            1 NAP254   0.0000
    59 H2A         22.7867    -6.5519    37.9321 H            1 NAP254   0.0000
    60 H5D1        27.4847     3.0296    42.7978 H            1 NAP254   0.0000
    61 H5D2        26.9482     1.9078    41.7393 H            1 NAP254   0.0000
    62 H4D         25.5432     3.7754    41.5450 H            1 NAP254   0.0000
    63 H3D         26.7546     2.9270    39.3125 H            1 NAP254   0.0000
    64 H16         24.4713     3.3304    39.5991 H            1 NAP254   0.0000
    65 H2D         28.2700     4.6583    39.2528 H            1 NAP254   0.0000
    66 H18         27.6189     6.1793    37.6980 H            1 NAP254   0.0000
    67 H1D         26.1257     6.3427    40.1554 H            1 NAP254   0.0000
    68 H2N         29.4790     5.7976    41.3017 H            1 NAP254   0.0000
    69 H7N1        32.7086     6.1363    42.7921 H            1 NAP254   0.0000
    70 H7N2        31.1162     5.5713    42.4114 H            1 NAP254   0.0000
    71 H4N         30.4872     9.8143    40.9998 H            1 NAP254   0.0000
    72 H5N         28.3153    10.2776    40.0701 H            1 NAP254   0.0000
    73 H6N         26.7790     8.4917    39.7516 H            1 NAP254   0.0000
@<TRIPOS>BOND
     1    1    2      ar
     2    1    3      ar
     3    1    4       1
     4    1   23       1
     5    4    5       1
     6    5    6       1
     7    6    7       1
     8    6    8       1
     9    7   12       1
    10    8    9       1
    11    8   10       1
    12   10   11       1
    13   10   12       1
    14   11   45       1
    15   12   13       1
    16   13   14       1
    17   13   22       1
    18   14   15       2
    19   15   16       1
    20   16   17      ar
    21   16   22      ar
    22   17   18       1
    23   17   19      ar
    24   19   20      ar
    25   20   21      ar
    26   21   22      ar
    27   23   24       1
    28   24   25      ar
    29   24   26      ar
    30   24   27       1
    31   27   28       1
    32   28   29       1
    33   29   30       1
    34   29   31       1
    35   30   35       1
    36   31   32       1
    37   31   33       1
    38   33   34       1
    39   33   35       1
    40   35   36       1
    41   36   37      ar
    42   36   44      ar
    43   37   38      ar
    44   38   39       1
    45   38   42      ar
    46   39   40       2
    47   39   41      am
    48   42   43      ar
    49   43   44      ar
    50   45   46      ar
    51   45   47      ar
    52   45   48      ar
    53   43   72       1
    54    5   49       1
    55    5   50       1
    56    6   51       1
    57    8   52       1
    58    9   53       1
    59   10   54       1
    60   12   55       1
    61   14   56       1
    62   18   57       1
    63   18   58       1
    64   20   59       1
    65   44   73       1
    66   28   60       1
    67   28   61       1
    68   29   62       1
    69   31   63       1
    70   32   64       1
    71   33   65       1
    72   34   66       1
    73   35   67       1
    74   37   68       1
    75   41   69       1
    76   41   70       1
    77   42   71       1
@<TRIPOS>SUBSTRUCTURE
     1 NAP254      1 GROUP             4 B     NAP     0 **** NAP B 254
