@<TRIPOS>MOLECULE
5af7_FAD_1_ligand
   84    89     1     0     0
SMALL
NO_CHARGES


@<TRIPOS>ATOM
     1 PA          22.4480    -0.4100   109.7120 P.3          1 FAD410   0.0000
     2 O1A         22.7780    -1.5230   110.6690 O.co2        1 FAD410   0.0000
     3 O2A         21.8760     0.8040   110.4000 O.co2        1 FAD410  -1.0000
     4 O5B         23.7860     0.0270   108.9700 O.3          1 FAD410   0.0000
     5 C5B         23.8180     1.2540   108.2550 C.3          1 FAD410   0.0000
     6 C4B         25.1170     1.2980   107.5340 C.3          1 FAD410   0.0000
     7 O4B         26.2180     1.1840   108.5450 O.3          1 FAD410   0.0000
     8 C3B         25.2650     0.1660   106.6090 C.3          1 FAD410   0.0000
     9 O3B         26.0410     0.6490   105.4770 O.3          1 FAD410   0.0000
    10 C2B         26.0300    -0.8570   107.3330 C.3          1 FAD410   0.0000
    11 O2B         26.7660    -1.7290   106.4280 O.3          1 FAD410   0.0000
    12 C1B         26.9240    -0.0560   108.2010 C.3          1 FAD410   0.0000
    13 N9A         27.3430    -0.6920   109.4020 N.pl3        1 FAD410   0.0000
    14 C8A         26.6350    -1.0490   110.3270 C.2          1 FAD410   0.0000
    15 N7A         27.2440    -1.5360   111.1980 N.2          1 FAD410   0.0000
    16 C5A         28.5760    -1.5910   110.9680 C.ar         1 FAD410   0.0000
    17 C6A         29.8990    -2.0280   111.5170 C.ar         1 FAD410   0.0000
    18 N6A         30.0310    -2.6590   112.8020 N.pl3        1 FAD410   0.0000
    19 N1A         31.0480    -1.7960   110.7340 N.ar         1 FAD410   0.0000
    20 C2A         30.9540    -1.2060   109.5400 C.ar         1 FAD410   0.0000
    21 N3A         29.8730    -0.8210   108.9970 N.ar         1 FAD410   0.0000
    22 C4A         28.7390    -0.9170   109.5220 C.ar         1 FAD410   0.0000
    23 N1          14.4500    -7.4830   107.5720 N.2          1 FAD410   0.0000
    24 C2          13.6620    -8.6120   108.0830 C.2          1 FAD410   0.0000
    25 O2          13.7530    -8.9390   109.2500 O.2          1 FAD410   0.0000
    26 N3          12.7810    -9.3310   107.2200 N.pl3        1 FAD410   0.0000
    27 C4          12.6390    -8.9800   105.8850 C.2          1 FAD410   0.0000
    28 O4          11.8320    -9.5370   105.1660 O.2          1 FAD410   0.0000
    29 C4X         13.4490    -7.8810   105.3500 C.2          1 FAD410   0.0000
    30 N5          13.3310    -7.5400   104.0670 N.2          1 FAD410   0.0000
    31 C5X         14.0780    -6.4160   103.5710 C.ar         1 FAD410   0.0000
    32 C6          13.9370    -6.0630   102.2030 C.ar         1 FAD410   0.0000
    33 C7          14.6520    -4.9770   101.7130 C.ar         1 FAD410   0.0000
    34 C7M         14.4840    -4.5920   100.2370 C.3          1 FAD410   0.0000
    35 C8          15.5210    -4.2580   102.5300 C.ar         1 FAD410   0.0000
    36 C8M         16.3140    -3.0830   101.9730 C.3          1 FAD410   0.0000
    37 C9          15.6830    -4.5990   103.8750 C.ar         1 FAD410   0.0000
    38 C9A         14.9590    -5.6900   104.4200 C.ar         1 FAD410   0.0000
    39 N10         15.1000    -6.0650   105.8080 N.pl3        1 FAD410   0.0000
    40 C10         14.3550    -7.1240   106.2890 C.2          1 FAD410   0.0000
    41 C1'         15.9640    -5.3500   106.7120 C.3          1 FAD410   0.0000
    42 C2'         17.4720    -5.6350   106.4850 C.3          1 FAD410   0.0000
    43 O2'         17.7540    -7.0080   106.3980 O.3          1 FAD410   0.0000
    44 C3'         18.2160    -5.0250   107.6440 C.3          1 FAD410   0.0000
    45 O3'         17.7410    -3.7240   107.8740 O.3          1 FAD410   0.0000
    46 C4'         19.6990    -4.9960   107.3700 C.3          1 FAD410   0.0000
    47 O4'         20.3350    -5.6330   108.4340 O.3          1 FAD410   0.0000
    48 C5'         20.2350    -3.5630   107.2970 C.3          1 FAD410   0.0000
    49 O5'         20.1020    -3.0550   108.6050 O.3          1 FAD410   0.0000
    50 P           20.0360    -1.4750   108.7610 P.3          1 FAD410   0.0000
    51 O1P         19.5050    -1.0340   110.1230 O.co2        1 FAD410   0.0000
    52 O2P         19.2350    -0.8690   107.6400 O.co2        1 FAD410  -1.0000
    53 O3P         21.5110    -0.9360   108.5790 O.3          1 FAD410   0.0000
    54 H5B1        23.7504     2.0239   108.8895 H            1 FAD410   0.0000
    55 H5B2        23.0609     1.2921   107.6028 H            1 FAD410   0.0000
    56 H4B         25.2007     2.1601   107.0342 H            1 FAD410   0.0000
    57 H3B         24.3749    -0.1840   106.3171 H            1 FAD410   0.0000
    58 H5          25.4230     1.0130   104.7802 H            1 FAD410   0.0000
    59 H2B         25.4117    -1.4029   107.8984 H            1 FAD410   0.0000
    60 H7          27.0123    -1.2211   105.6025 H            1 FAD410   0.0000
    61 H1B         27.7390     0.1842   107.6736 H            1 FAD410   0.0000
    62 H8A         25.6413    -0.9376   110.3398 H            1 FAD410   0.0000
    63 H6A1        30.9332    -2.9361   113.1326 H            1 FAD410   0.0000
    64 H6A2        29.2207    -2.8208   113.3652 H            1 FAD410   0.0000
    65 H2A         31.8027    -1.0554   109.0331 H            1 FAD410   0.0000
    66 H13         12.2570   -10.1011   107.5839 H            1 FAD410   0.0000
    67 H14         13.3333    -6.5871   101.6023 H            1 FAD410   0.0000
    68 H7M1        15.0565    -3.7980   100.0324 H            1 FAD410   0.0000
    69 H7M2        14.7599    -5.3598    99.6588 H            1 FAD410   0.0000
    70 H7M3        13.5261    -4.3673   100.0581 H            1 FAD410   0.0000
    71 H8M1        16.8808    -2.6902   102.6972 H            1 FAD410   0.0000
    72 H8M2        16.8991    -3.3997   101.2265 H            1 FAD410   0.0000
    73 H8M3        15.6827    -2.3876   101.6297 H            1 FAD410   0.0000
    74 H21         16.3085    -4.0746   104.4527 H            1 FAD410   0.0000
    75 H1'1        15.7298    -5.6132   107.6479 H            1 FAD410   0.0000
    76 H1'2        15.8058    -4.3699   106.5919 H            1 FAD410   0.0000
    77 H2'         17.7641    -5.1884   105.6393 H            1 FAD410   0.0000
    78 H25         16.9624    -7.4875   106.0194 H            1 FAD410   0.0000
    79 H3'         18.0498    -5.5779   108.4605 H            1 FAD410   0.0000
    80 H27         18.4775    -3.1619   108.2503 H            1 FAD410   0.0000
    81 H4'         19.8974    -5.4779   106.5165 H            1 FAD410   0.0000
    82 H29         20.5547    -4.9613   109.1415 H            1 FAD410   0.0000
    83 H5'1        19.6972    -3.0193   106.6527 H            1 FAD410   0.0000
    84 H5'2        21.1945    -3.5608   107.0153 H            1 FAD410   0.0000
@<TRIPOS>BOND
     1    1    2      ar
     2    1    3      ar
     3    1    4       1
     4    1   53       1
     5    4    5       1
     6    5    6       1
     7    6    7       1
     8    6    8       1
     9    7   12       1
    10    8    9       1
    11    8   10       1
    12   10   11       1
    13   10   12       1
    14   12   13       1
    15   13   14       1
    16   13   22       1
    17   14   15       2
    18   15   16       1
    19   16   17      ar
    20   16   22      ar
    21   17   18       1
    22   17   19      ar
    23   19   20      ar
    24   20   21      ar
    25   21   22      ar
    26   23   24       1
    27   23   40       2
    28   24   25       2
    29   24   26       1
    30   26   27       1
    31   27   28       2
    32   27   29       1
    33   29   30       2
    34   29   40       1
    35   30   31       1
    36   31   32      ar
    37   31   38      ar
    38   32   33      ar
    39   33   34       1
    40   33   35      ar
    41   35   36       1
    42   35   37      ar
    43   37   38      ar
    44   38   39       1
    45   39   40       1
    46   39   41       1
    47   41   42       1
    48   42   43       1
    49   42   44       1
    50   44   45       1
    51   44   46       1
    52   46   47       1
    53   46   48       1
    54   48   49       1
    55   49   50       1
    56   50   51      ar
    57   50   52      ar
    58   50   53       1
    59   48   84       1
    60    5   54       1
    61    5   55       1
    62    6   56       1
    63    8   57       1
    64    9   58       1
    65   10   59       1
    66   11   60       1
    67   12   61       1
    68   14   62       1
    69   18   63       1
    70   18   64       1
    71   20   65       1
    72   26   66       1
    73   32   67       1
    74   34   68       1
    75   34   69       1
    76   34   70       1
    77   36   71       1
    78   36   72       1
    79   36   73       1
    80   37   74       1
    81   41   75       1
    82   41   76       1
    83   42   77       1
    84   43   78       1
    85   44   79       1
    86   45   80       1
    87   46   81       1
    88   47   82       1
    89   48   83       1
@<TRIPOS>SUBSTRUCTURE
     1 FAD410      1 GROUP             4 A     FAD     0 **** FAD A 410
