@<TRIPOS>MOLECULE
3d7t_STU_1_ligand
   61    68     1     0     0
SMALL
NO_CHARGES


@<TRIPOS>ATOM
     1 O4         -66.3380    43.8880   -19.9920 O.3          1 STU6335   0.0000
     2 C25        -65.5080    43.0840   -20.7700 C.3          1 STU6335   0.0000
     3 C24        -66.2370    42.2030   -21.7780 C.3          1 STU6335   0.0000
     4 C23        -67.7800    42.3090   -21.7510 C.3          1 STU6335   0.0000
     5 C22        -68.3640    42.5000   -20.3190 C.3          1 STU6335   0.0000
     6 C21        -67.4480    43.2950   -19.3870 C.3          1 STU6335   0.0000
     7 C26        -68.2870    44.5070   -18.9730 C.3          1 STU6335   0.0000
     8 N2         -67.1390    42.5320   -18.1730 N.pl3        1 STU6335   0.0000
     9 C18        -65.9380    41.8570   -17.9610 C.ar         1 STU6335   0.0000
    10 C19        -64.8040    41.7440   -18.7740 C.ar         1 STU6335   0.0000
    11 C6         -63.6940    41.0020   -18.3450 C.ar         1 STU6335   0.0000
    12 C7         -63.7200    40.3590   -17.0740 C.ar         1 STU6335   0.0000
    13 C10        -64.8590    40.4810   -16.2760 C.ar         1 STU6335   0.0000
    14 C11        -65.9600    41.2190   -16.7070 C.ar         1 STU6335   0.0000
    15 C12        -67.2670    41.5320   -16.1280 C.ar         1 STU6335   0.0000
    16 C17        -67.9520    42.3390   -17.0670 C.ar         1 STU6335   0.0000
    17 C16        -69.2430    42.7890   -16.7750 C.ar         1 STU6335   0.0000
    18 C15        -69.7970    42.4230   -15.5610 C.ar         1 STU6335   0.0000
    19 C14        -69.1160    41.6350   -14.6550 C.ar         1 STU6335   0.0000
    20 C13        -67.8400    41.1710   -14.9120 C.ar         1 STU6335   0.0000
    21 C9         -64.5890    39.7020   -15.0100 C.3          1 STU6335   0.0000
    22 N1         -63.2420    39.1440   -15.1550 N.am         1 STU6335   0.0000
    23 C8         -62.7390    39.5230   -16.3440 C.2          1 STU6335   0.0000
    24 O5         -61.6290    39.2120   -16.7480 O.2          1 STU6335   0.0000
    25 C5         -62.7160    41.1010   -19.4280 C.ar         1 STU6335   0.0000
    26 C20        -63.3040    41.8980   -20.4420 C.ar         1 STU6335   0.0000
    27 C1         -62.6030    42.1770   -21.6170 C.ar         1 STU6335   0.0000
    28 C2         -61.3290    41.6430   -21.7410 C.ar         1 STU6335   0.0000
    29 C3         -60.7560    40.8630   -20.7500 C.ar         1 STU6335   0.0000
    30 C4         -61.4290    40.5720   -19.5720 C.ar         1 STU6335   0.0000
    31 N3         -64.5740    42.2680   -19.9970 N.pl3        1 STU6335   0.0000
    32 O6         -68.8290    41.2990   -19.6550 O.3          1 STU6335   0.0000
    33 C27        -67.9780    40.1720   -19.8740 C.3          1 STU6335   0.0000
    34 N4         -68.3770    41.1270   -22.4130 N.3          1 STU6335   0.0000
    35 C28        -69.5430    41.5560   -23.1970 C.3          1 STU6335   0.0000
    36 H1         -64.9449    43.7104   -21.3090 H            1 STU6335   0.0000
    37 H2         -65.9890    41.2519   -21.5939 H            1 STU6335   0.0000
    38 H3         -65.9254    42.4575   -22.6935 H            1 STU6335   0.0000
    39 H4         -68.0344    43.1133   -22.2879 H            1 STU6335   0.0000
    40 H5         -69.1779    43.0685   -20.4386 H            1 STU6335   0.0000
    41 H6         -69.1227    44.1952   -18.5210 H            1 STU6335   0.0000
    42 H7         -67.7602    45.0775   -18.3429 H            1 STU6335   0.0000
    43 H8         -68.5260    45.0399   -19.7847 H            1 STU6335   0.0000
    44 H9         -69.7500    43.3574   -17.4230 H            1 STU6335   0.0000
    45 H10        -70.7181    42.7387   -15.3332 H            1 STU6335   0.0000
    46 H11        -69.5573    41.3938   -13.7907 H            1 STU6335   0.0000
    47 H12        -67.3496    40.6007   -14.2530 H            1 STU6335   0.0000
    48 H13        -65.2594    38.9675   -14.9050 H            1 STU6335   0.0000
    49 H14        -64.6302    40.3071   -14.2149 H            1 STU6335   0.0000
    50 H15        -62.7729    38.5743   -14.4802 H            1 STU6335   0.0000
    51 H16        -63.0036    42.7395   -22.3403 H            1 STU6335   0.0000
    52 H17        -60.8067    41.8272   -22.5736 H            1 STU6335   0.0000
    53 H18        -59.8341    40.5005   -20.8870 H            1 STU6335   0.0000
    54 H19        -61.0126    40.0093   -18.8579 H            1 STU6335   0.0000
    55 H20        -68.3479    39.3767   -19.3938 H            1 STU6335   0.0000
    56 H21        -67.9288    39.9768   -20.8535 H            1 STU6335   0.0000
    57 H22        -67.0618    40.3739   -19.5280 H            1 STU6335   0.0000
    58 H23        -69.9520    40.7624   -23.6475 H            1 STU6335   0.0000
    59 H24        -70.2160    41.9781   -22.5897 H            1 STU6335   0.0000
    60 H25        -69.2546    42.2194   -23.8875 H            1 STU6335   0.0000
    61 H26        -67.7022    40.7056   -23.0189 H            1 STU6335   0.0000
@<TRIPOS>BOND
     1    1    2       1
     2    1    6       1
     3    2    3       1
     4    2   31       1
     5    3    4       1
     6    4    5       1
     7    4   34       1
     8    5    6       1
     9    5   32       1
    10    6    7       1
    11    6    8       1
    12    8    9       1
    13    8   16       1
    14    9   10      ar
    15    9   14      ar
    16   10   11      ar
    17   10   31       1
    18   11   12      ar
    19   11   25       1
    20   12   13      ar
    21   12   23       1
    22   13   14      ar
    23   13   21       1
    24   14   15       1
    25   15   16      ar
    26   15   20      ar
    27   16   17      ar
    28   17   18      ar
    29   18   19      ar
    30   19   20      ar
    31   21   22       1
    32   22   23      am
    33   23   24       2
    34   25   26      ar
    35   25   30      ar
    36   26   27      ar
    37   26   31       1
    38   27   28      ar
    39   28   29      ar
    40   29   30      ar
    41   32   33       1
    42   34   35       1
    43    2   36       1
    44    3   37       1
    45    3   38       1
    46    4   39       1
    47    5   40       1
    48    7   41       1
    49    7   42       1
    50    7   43       1
    51   17   44       1
    52   18   45       1
    53   19   46       1
    54   20   47       1
    55   21   48       1
    56   21   49       1
    57   22   50       1
    58   27   51       1
    59   28   52       1
    60   29   53       1
    61   30   54       1
    62   33   55       1
    63   33   56       1
    64   33   57       1
    65   34   61       1
    66   35   58       1
    67   35   59       1
    68   35   60       1
@<TRIPOS>SUBSTRUCTURE
     1 STU6335     1 GROUP             4 A     STU     0 **** STU A6335
