@<TRIPOS>MOLECULE
2e1t_MLC_1_ligand
   87    89     1     0     0
SMALL
NO_CHARGES


@<TRIPOS>ATOM
     1 C8          31.8490   -12.6510    79.9530 C.2          1 MLC1001   0.0000
     2 N9          30.5260   -12.8720    79.8010 N.pl3        1 MLC1001   0.0000
     3 C4          30.3490   -14.1330    79.3940 C.ar         1 MLC1001   0.0000
     4 C5          31.6920   -14.7210    79.3220 C.ar         1 MLC1001   0.0000
     5 N7          32.5700   -13.7670    79.6740 N.2          1 MLC1001   0.0000
     6 N3          29.2750   -14.9070    79.0880 N.ar         1 MLC1001   0.0000
     7 C2          29.4090   -16.1930    78.7190 C.ar         1 MLC1001   0.0000
     8 N1          30.6110   -16.7890    78.6280 N.ar         1 MLC1001   0.0000
     9 C6          31.7730   -16.1370    78.9060 C.ar         1 MLC1001   0.0000
    10 N6          32.9850   -16.7420    78.8130 N.pl3        1 MLC1001   0.0000
    11 C1'         29.4610   -11.8410    79.9990 C.3          1 MLC1001   0.0000
    12 C2'         28.1140   -12.3010    80.5180 C.3          1 MLC1001   0.0000
    13 O2'         28.2300   -12.8560    81.8440 O.3          1 MLC1001   0.0000
    14 C3'         27.4890   -10.9250    80.5940 C.3          1 MLC1001   0.0000
    15 O3'         26.3260   -10.9470    81.3870 O.3          1 MLC1001   0.0000
    16 C4'         28.5930   -10.0960    81.2160 C.3          1 MLC1001   0.0000
    17 O4'         29.8100   -10.7840    80.9020 O.3          1 MLC1001   0.0000
    18 C5'         28.6200    -8.7150    80.5850 C.3          1 MLC1001   0.0000
    19 O5'         29.8930    -8.6090    79.9930 O.3          1 MLC1001   0.0000
    20 P1          30.4420    -7.2670    79.3330 P.3          1 MLC1001   0.0000
    21 O11         29.6540    -6.0560    79.7980 O.co2        1 MLC1001   0.0000
    22 O12         31.9530    -7.3000    79.4800 O.co2        1 MLC1001  -1.0000
    23 O6          30.1310    -7.5710    77.7780 O.3          1 MLC1001   0.0000
    24 P2          28.6990    -7.6970    77.0460 P.3          1 MLC1001   0.0000
    25 O21         28.5430    -9.1350    76.5740 O.co2        1 MLC1001   0.0000
    26 O22         27.5580    -7.0990    77.8260 O.co2        1 MLC1001  -1.0000
    27 O7          29.0210    -6.7740    75.7670 O.3          1 MLC1001   0.0000
    28 CPB         30.0440    -7.1390    74.8240 C.3          1 MLC1001   0.0000
    29 CPA         30.5490    -5.9360    74.0050 C.3          1 MLC1001   0.0000
    30 CP7         31.5050    -5.0400    74.8340 C.3          1 MLC1001   0.0000
    31 CP9         29.3530    -5.2360    73.3530 C.3          1 MLC1001   0.0000
    32 CP8         31.4060    -6.4900    72.8830 C.3          1 MLC1001   0.0000
    33 OP3         31.3850    -5.2370    76.2480 O.3          1 MLC1001   0.0000
    34 CP6         31.6030    -3.5570    74.4720 C.2          1 MLC1001   0.0000
    35 OP2         32.6720    -3.1740    74.0560 O.2          1 MLC1001   0.0000
    36 NP2         30.5870    -2.7040    74.5970 N.am         1 MLC1001   0.0000
    37 CP5         30.7300    -1.2700    74.3270 C.3          1 MLC1001   0.0000
    38 CP4         30.6960    -0.8910    72.8390 C.3          1 MLC1001   0.0000
    39 CP3         30.9610     0.5950    72.6220 C.2          1 MLC1001   0.0000
    40 OP1         31.8170     1.1800    73.2490 O.2          1 MLC1001   0.0000
    41 NP1         30.2190     1.2450    71.7290 N.am         1 MLC1001   0.0000
    42 CP2         30.7250     1.7890    70.4770 C.3          1 MLC1001   0.0000
    43 CP1         31.7080     2.9440    70.5930 C.3          1 MLC1001   0.0000
    44 S           31.3300     4.2170    69.4300 S.3          1 MLC1001   0.0000
    45 P3          25.1640    -9.8470    81.4820 P.3          1 MLC1001   0.0000
    46 O31         24.9540    -9.8020    82.9710 O.co2        1 MLC1001   0.0000
    47 O32         25.6500    -8.5290    80.9100 O.co2        1 MLC1001  -1.0000
    48 O33         24.0610   -10.5230    80.7070 O.co2        1 MLC1001  -1.0000
    49 CM1         30.6370     3.6120    68.0170 C.2          1 MLC1001   0.0000
    50 CM2         29.1210     3.6350    67.7910 C.3          1 MLC1001   0.0000
    51 CM3         28.2900     4.1330    68.9600 C.2          1 MLC1001   0.0000
    52 OM2         31.3720     3.1630    67.1290 O.2          1 MLC1001   0.0000
    53 OM3         27.7900     3.2890    69.7220 O.co2        1 MLC1001   0.0000
    54 OM4         28.1210     5.3640    69.1390 O.co2        1 MLC1001  -1.0000
    55 H1          32.2467   -11.7778    80.2348 H            1 MLC1001   0.0000
    56 H2          28.5885   -16.7232    78.5054 H            1 MLC1001   0.0000
    57 H3          33.0455   -17.6998    78.5320 H            1 MLC1001   0.0000
    58 H4          33.8171   -16.2298    79.0255 H            1 MLC1001   0.0000
    59 H1'         29.2985   -11.4181    79.1075 H            1 MLC1001   0.0000
    60 H2'         27.6392   -12.9093    79.8819 H            1 MLC1001   0.0000
    61 H7          27.3289   -13.1510    82.1619 H            1 MLC1001   0.0000
    62 H3'         27.2772   -10.5887    79.6764 H            1 MLC1001   0.0000
    63 H4'         28.4700   -10.0297    82.2062 H            1 MLC1001   0.0000
    64 H5'1        28.4964    -8.0080    81.2814 H            1 MLC1001   0.0000
    65 H5'2        27.9027    -8.6306    79.8933 H            1 MLC1001   0.0000
    66 HPB1        29.6714    -7.8213    74.1950 H            1 MLC1001   0.0000
    67 HPB2        30.8153    -7.5327    75.3242 H            1 MLC1001   0.0000
    68 HP7         32.4136    -5.3984    74.6196 H            1 MLC1001   0.0000
    69 HP91        29.6748    -4.4537    72.8196 H            1 MLC1001   0.0000
    70 HP92        28.8789    -5.8780    72.7504 H            1 MLC1001   0.0000
    71 HP93        28.7243    -4.9193    74.0633 H            1 MLC1001   0.0000
    72 HP81        31.7542    -5.7360    72.3261 H            1 MLC1001   0.0000
    73 HP82        32.1737    -7.0002    73.2707 H            1 MLC1001   0.0000
    74 HP83        30.8552    -7.0991    72.3124 H            1 MLC1001   0.0000
    75 HP3         30.6897    -5.9323    76.4299 H            1 MLC1001   0.0000
    76 HP2         29.6957    -3.0542    74.8851 H            1 MLC1001   0.0000
    77 HP51        31.6047    -0.9674    74.7057 H            1 MLC1001   0.0000
    78 HP52        29.9834    -0.7902    74.7878 H            1 MLC1001   0.0000
    79 HP41        29.7945    -1.1156    72.4691 H            1 MLC1001   0.0000
    80 HP42        31.3953    -1.4176    72.3556 H            1 MLC1001   0.0000
    81 HP1         29.2475     1.3682    71.9317 H            1 MLC1001   0.0000
    82 HP21        29.9411     2.1083    69.9445 H            1 MLC1001   0.0000
    83 HP22        31.1822     1.0479    69.9854 H            1 MLC1001   0.0000
    84 HP11        32.6324     2.6053    70.4179 H            1 MLC1001   0.0000
    85 HP12        31.6610     3.3216    71.5178 H            1 MLC1001   0.0000
    86 HM21        28.8274     2.7026    67.5801 H            1 MLC1001   0.0000
    87 HM22        28.9359     4.2281    67.0074 H            1 MLC1001   0.0000
@<TRIPOS>BOND
     1    1    2       1
     2    1    5       2
     3    2    3       1
     4    2   11       1
     5    3    4      ar
     6    3    6      ar
     7    4    5       1
     8    4    9      ar
     9    6    7      ar
    10    7    8      ar
    11    8    9      ar
    12    9   10       1
    13   11   12       1
    14   11   17       1
    15   12   13       1
    16   12   14       1
    17   14   15       1
    18   14   16       1
    19   15   45       1
    20   16   17       1
    21   16   18       1
    22   18   19       1
    23   19   20       1
    24   20   21      ar
    25   20   22      ar
    26   20   23       1
    27   23   24       1
    28   24   25      ar
    29   24   26      ar
    30   24   27       1
    31   27   28       1
    32   28   29       1
    33   29   30       1
    34   29   31       1
    35   29   32       1
    36   30   33       1
    37   30   34       1
    38   34   35       2
    39   34   36      am
    40   36   37       1
    41   37   38       1
    42   38   39       1
    43   39   40       2
    44   39   41      am
    45   41   42       1
    46   42   43       1
    47   43   44       1
    48   44   49       1
    49   45   46      ar
    50   45   47      ar
    51   45   48      ar
    52   49   50       1
    53   49   52       2
    54   50   51       1
    55   51   53      ar
    56   51   54      ar
    57    1   55       1
    58    7   56       1
    59   10   57       1
    60   10   58       1
    61   11   59       1
    62   12   60       1
    63   13   61       1
    64   14   62       1
    65   16   63       1
    66   18   64       1
    67   18   65       1
    68   50   86       1
    69   50   87       1
    70   28   66       1
    71   28   67       1
    72   30   68       1
    73   31   69       1
    74   31   70       1
    75   31   71       1
    76   32   72       1
    77   32   73       1
    78   32   74       1
    79   33   75       1
    80   36   76       1
    81   37   77       1
    82   37   78       1
    83   38   79       1
    84   38   80       1
    85   41   81       1
    86   42   82       1
    87   42   83       1
    88   43   84       1
    89   43   85       1
@<TRIPOS>SUBSTRUCTURE
     1 MLC1001     1 GROUP             4 A     MLC     0 **** MLC A1001
