@<TRIPOS>MOLECULE
3mct_3MC_1_ligand
   16    16     1     0     0
SMALL
NO_CHARGES


@<TRIPOS>ATOM
     1 N3          16.7470    14.5230    21.6720 N.pl3        1 3MC600   0.0000
     2 CN3         15.7990    15.2070    22.5510 C.3          1 3MC600   0.0000
     3 N1          18.3400    14.6020    19.8470 N.2          1 3MC600   0.0000
     4 C2          17.4520    15.1290    20.7050 C.2          1 3MC600   0.0000
     5 O2          17.2440    16.4950    20.5610 O.2          1 3MC600   0.0000
     6 C4          16.8810    13.2020    21.9170 C.2          1 3MC600   0.0000
     7 N4          16.2020    12.6210    22.8990 N.pl3        1 3MC600   0.0000
     8 C5          17.7830    12.5170    21.0840 C.2          1 3MC600   0.0000
     9 C6          18.4620    13.2880    20.0830 C.2          1 3MC600   0.0000
    10 HN31        15.3995    14.5476    23.1878 H            1 3MC600   0.0000
    11 HN32        16.2758    15.9200    23.0650 H            1 3MC600   0.0000
    12 HN33        15.0736    15.6210    22.0011 H            1 3MC600   0.0000
    13 H4          16.3100    11.6417    23.0703 H            1 3MC600   0.0000
    14 H5          15.5826    13.1627    23.4673 H            1 3MC600   0.0000
    15 H6          17.9441    11.5352    21.1850 H            1 3MC600   0.0000
    16 H7          19.0983    12.7889    19.4947 H            1 3MC600   0.0000
@<TRIPOS>BOND
     1    1    2       1
     2    1    4       1
     3    1    6       1
     4    3    4       1
     5    3    9       2
     6    4    5       2
     7    6    7       1
     8    6    8       2
     9    8    9       1
    10    2   10       1
    11    2   11       1
    12    2   12       1
    13    7   13       1
    14    7   14       1
    15    8   15       1
    16    9   16       1
@<TRIPOS>SUBSTRUCTURE
     1 3MC600      1 GROUP             4 A     3MC     0 **** 3MC A 600
