@<TRIPOS>MOLECULE
2zja_ACP_1_ligand
   45    47     1     0     0
SMALL
NO_CHARGES


@<TRIPOS>ATOM
     1 PG           4.9380     8.1420    30.7900 P.3          1 ACP901   0.0000
     2 O1G          4.4600     6.7440    31.1970 O.co2        1 ACP901   0.0000
     3 O2G          6.4550     8.2160    30.8450 O.co2        1 ACP901  -1.0000
     4 O3G          4.3650     8.5830    29.4190 O.co2        1 ACP901  -1.0000
     5 PB           5.0130    10.7820    31.8380 P.3          1 ACP901   0.0000
     6 O1B          4.2210    11.7320    32.6800 O.co2        1 ACP901   0.0000
     7 O2B          5.3760    11.3240    30.5090 O.co2        1 ACP901  -1.0000
     8 C3B          4.1560     9.3910    31.7660 C.3          1 ACP901   0.0000
     9 PA           8.0220    10.9000    32.2300 P.3          1 ACP901   0.0000
    10 O1A          8.2760    10.6910    30.7250 O.co2        1 ACP901   0.0000
    11 O2A          8.8470     9.9790    33.1110 O.co2        1 ACP901  -1.0000
    12 O3A          6.4790    10.6740    32.5640 O.3          1 ACP901   0.0000
    13 O5'          8.2920    12.4630    32.2680 O.3          1 ACP901   0.0000
    14 C5'          8.1580    13.1250    33.5230 C.3          1 ACP901   0.0000
    15 C4'          8.5850    14.6010    33.6610 C.3          1 ACP901   0.0000
    16 O4'          7.9890    15.3700    34.6640 O.3          1 ACP901   0.0000
    17 C3'          9.9760    14.3270    34.0650 C.3          1 ACP901   0.0000
    18 O3'         10.8380    15.3550    33.6470 O.3          1 ACP901   0.0000
    19 C2'          9.7850    14.0760    35.5830 C.3          1 ACP901   0.0000
    20 O2'         11.0280    14.1680    36.2490 O.3          1 ACP901   0.0000
    21 C1'          8.7640    15.1270    35.8580 C.3          1 ACP901   0.0000
    22 N9           7.7370    15.0020    36.9890 N.pl3        1 ACP901   0.0000
    23 C8           6.7360    14.1300    37.2460 C.2          1 ACP901   0.0000
    24 N7           6.0280    14.3770    38.3550 N.2          1 ACP901   0.0000
    25 C5           6.6200    15.4730    38.8250 C.ar         1 ACP901   0.0000
    26 C6           6.4130    16.3210    39.9690 C.ar         1 ACP901   0.0000
    27 N6           5.4170    16.0690    40.8680 N.pl3        1 ACP901   0.0000
    28 N1           7.2190    17.4250    40.1890 N.ar         1 ACP901   0.0000
    29 C2           8.2220    17.7150    39.3210 C.ar         1 ACP901   0.0000
    30 N3           8.4950    16.9770    38.2160 N.ar         1 ACP901   0.0000
    31 C4           7.6840    15.8910    38.0160 C.ar         1 ACP901   0.0000
    32 H3B1         4.0389     9.0413    32.6955 H            1 ACP901   0.0000
    33 H3B2         3.2599     9.5899    31.3693 H            1 ACP901   0.0000
    34 H5'1         8.6982    12.6043    34.1841 H            1 ACP901   0.0000
    35 H5'2         7.1908    13.0789    33.7728 H            1 ACP901   0.0000
    36 H4'          8.5514    15.0703    32.7786 H            1 ACP901   0.0000
    37 H3'         10.2690    13.4725    33.6360 H            1 ACP901   0.0000
    38 H7          11.7724    15.1436    33.9336 H            1 ACP901   0.0000
    39 H2'          9.3876    13.1702    35.7298 H            1 ACP901   0.0000
    40 H9          10.8952    14.0049    37.2266 H            1 ACP901   0.0000
    41 H1'          9.2727    15.9694    36.0358 H            1 ACP901   0.0000
    42 H11          6.5380    13.3532    36.6481 H            1 ACP901   0.0000
    43 H12          5.2907    16.6713    41.6562 H            1 ACP901   0.0000
    44 H13          4.8137    15.2821    40.7383 H            1 ACP901   0.0000
    45 H14          8.7906    18.5165    39.5064 H            1 ACP901   0.0000
@<TRIPOS>BOND
     1    1    2      ar
     2    1    3      ar
     3    1    4      ar
     4    1    8       1
     5    5    6      ar
     6    5    7      ar
     7    5    8       1
     8    5   12       1
     9    9   10      ar
    10    9   11      ar
    11    9   12       1
    12    9   13       1
    13   13   14       1
    14   14   15       1
    15   15   16       1
    16   15   17       1
    17   16   21       1
    18   17   18       1
    19   17   19       1
    20   19   20       1
    21   19   21       1
    22   21   22       1
    23   22   23       1
    24   22   31       1
    25   23   24       2
    26   24   25       1
    27   25   26      ar
    28   25   31      ar
    29   26   27       1
    30   26   28      ar
    31   28   29      ar
    32   29   30      ar
    33   30   31      ar
    34   29   45       1
    35   27   44       1
    36   27   43       1
    37    8   32       1
    38    8   33       1
    39   23   42       1
    40   14   34       1
    41   14   35       1
    42   15   36       1
    43   17   37       1
    44   18   38       1
    45   19   39       1
    46   20   40       1
    47   21   41       1
@<TRIPOS>SUBSTRUCTURE
     1 ACP901      1 GROUP             4 A     ACP     0 **** ACP A 901
