@<TRIPOS>MOLECULE
4kne_1CY_1_ligand
   31    32     1     0     0
SMALL
NO_CHARGES


@<TRIPOS>ATOM
     1 N1           3.2000   -16.3100    -1.3330 N.2          1 1CY201   0.0000
     2 C2           3.1980   -15.0260    -0.8980 C.2          1 1CY201   0.0000
     3 N3           2.6400   -14.6860     0.2780 N.2          1 1CY201   0.0000
     4 C4           2.0340   -15.6070     1.0600 C.2          1 1CY201   0.0000
     5 N5           1.9840   -16.9550     0.6750 N.pl3        1 1CY201   0.0000
     6 C6           2.5230   -17.3750    -0.6150 C.3          1 1CY201   0.0000
     7 N7           3.7780   -14.0690    -1.6440 N.pl3        1 1CY201   0.0000
     8 N8           1.4790   -15.2410     2.2370 N.pl3        1 1CY201   0.0000
     9 C9           3.3100   -18.6850    -0.6130 C.3          1 1CY201   0.0000
    10 C10          1.2570   -17.5810    -1.4300 C.3          1 1CY201   0.0000
    11 C11          1.3780   -17.8720     1.5590 C.ar         1 1CY201   0.0000
    12 C12          2.2500   -18.5650     2.4080 C.ar         1 1CY201   0.0000
    13 C13          1.7750   -19.4890     3.3300 C.ar         1 1CY201   0.0000
    14 C14          0.4020   -19.6810     3.4000 C.ar         1 1CY201   0.0000
    15 C15         -0.4720   -18.9930     2.5690 C.ar         1 1CY201   0.0000
    16 C16          0.0130   -18.0730     1.6550 C.ar         1 1CY201   0.0000
    17 CL17        -0.2450   -20.8510     4.5750 Cl           1 1CY201   0.0000
    18 H1           3.7792   -13.1204    -1.3276 H            1 1CY201   0.0000
    19 H2           4.2081   -14.3060    -2.5151 H            1 1CY201   0.0000
    20 H3           1.0315   -15.9251     2.8130 H            1 1CY201   0.0000
    21 H4           1.5159   -14.2861     2.5317 H            1 1CY201   0.0000
    22 H5           2.7992   -19.3800    -0.1069 H            1 1CY201   0.0000
    23 H6           3.4480   -18.9924    -1.5545 H            1 1CY201   0.0000
    24 H7           4.1978   -18.5398    -0.1762 H            1 1CY201   0.0000
    25 H8           0.7078   -18.3064    -1.0150 H            1 1CY201   0.0000
    26 H9           0.7295   -16.7316    -1.4468 H            1 1CY201   0.0000
    27 H10          1.5007   -17.8406    -2.3645 H            1 1CY201   0.0000
    28 H11          3.2331   -18.3914     2.3493 H            1 1CY201   0.0000
    29 H12          2.3999   -19.9977     3.9222 H            1 1CY201   0.0000
    30 H13         -1.4556   -19.1626     2.6309 H            1 1CY201   0.0000
    31 H14         -0.6162   -17.5599     1.0712 H            1 1CY201   0.0000
@<TRIPOS>BOND
     1    1    2       2
     2    1    6       1
     3    2    3       1
     4    2    7       1
     5    3    4       2
     6    4    5       1
     7    4    8       1
     8    5    6       1
     9    5   11       1
    10    6    9       1
    11    6   10       1
    12   11   12      ar
    13   11   16      ar
    14   12   13      ar
    15   13   14      ar
    16   14   15      ar
    17   14   17       1
    18   15   16      ar
    19    7   18       1
    20    7   19       1
    21    8   20       1
    22    8   21       1
    23    9   22       1
    24    9   23       1
    25    9   24       1
    26   10   25       1
    27   10   26       1
    28   10   27       1
    29   12   28       1
    30   13   29       1
    31   15   30       1
    32   16   31       1
@<TRIPOS>SUBSTRUCTURE
     1 1CY201      1 GROUP             4 A     1CY     0 **** 1CY A 201
