@<TRIPOS>MOLECULE
./coach420/1jyl/ligand.pdb
 61 60 0 0 0
SMALL
GASTEIGER

@<TRIPOS>ATOM
      1 MG        -10.7740   32.0570    8.2340 Mg    1996  MG1996      0.0000
      2  C2       -12.7400   34.0180   -0.7920 C.3   1991  CDC1991     0.0000
      3  N3       -13.5320   34.8670   -1.4550 N.pl3 1991  CDC1991     0.5000
      4  C4       -14.3420   35.7460   -0.7740 C.2   1991  CDC1991     0.0000
      5  C5       -14.3450   35.7800    0.6410 C.3   1991  CDC1991     0.0000
      6  C6       -13.4930   34.8680    1.2840 C.3   1991  CDC1991     0.0000
      7  O2       -12.0540   33.2570   -1.5310 O.3   1991  CDC1991     0.0000
      8  N4       -15.1260   36.5610   -1.5170 N.2   1991  CDC1991     0.5000
      9  C1'      -11.8090   32.9920    1.2980 C.3   1991  CDC1991     0.0000
     10  C2'      -10.6660   33.5650    2.0730 C.3   1991  CDC1991     0.0000
     11  O2'       -9.6460   33.9530    1.1860 O.3   1991  CDC1991     0.0000
     12  C3'      -10.3240   32.4280    3.0150 C.3   1991  CDC1991     0.0000
     13  C4'      -11.6150   31.5990    3.1160 C.3   1991  CDC1991     0.0000
     14  O4'      -12.5300   32.2930    2.2680 O.3   1991  CDC1991     0.0000
     15  O3'       -9.3260   31.5140    2.5380 O.3   1991  CDC1991     0.0000
     16  C5'      -11.9200   31.6870    4.5840 C.3   1991  CDC1991     0.0000
     17  O5'      -13.0230   32.5320    4.8640 O.3   1991  CDC1991     0.0000
     18  PA       -12.7770   33.9080    5.7690 P.3   1991  CDC1991     0.0000
     19  O1A      -12.7570   35.1310    4.8400 O.2   1991  CDC1991     0.0000
     20  O2A      -11.4020   33.6370    6.4430 O.3   1991  CDC1991     0.0000
     21  O3A      -13.9530   34.1310    6.8590 O.3   1991  CDC1991     0.0000
     22  PB       -14.2710   32.9730    7.9690 P.3   1991  CDC1991     0.0000
     23  O1B      -15.0000   31.6440    7.2950 O.3   1991  CDC1991     0.0000
     24  O2B      -13.0140   32.6460    8.8130 O.3   1991  CDC1991     0.0000
     25  O3B      -15.3920   33.6130    8.8230 O.2   1991  CDC1991     0.0000
     26  C14      -15.4320   30.7670    8.2910 C.3   1991  CDC1991     0.0000
     27  C15      -16.1830   29.5550    7.6620 C.3   1991  CDC1991     0.0000
     28  N11      -17.6010   29.3810    8.1750 N.4   1991  CDC1991     0.0000
     29  C16      -18.5160   29.0050    7.0910 C.3   1991  CDC1991     0.0000
     30  C17      -17.5590   28.3420    9.2130 C.3   1991  CDC1991     0.0000
     31  C18      -18.1480   30.6220    8.7740 C.3   1991  CDC1991     0.0000
     32  C2         1.1950   50.8120   16.0710 C.3   2991  CDC2991     0.0000
     33  N3         0.2770   50.0760   16.7110 N.pl3 2991  CDC2991     0.5000
     34  C4        -0.1650   48.9050   16.1790 C.2   2991  CDC2991     0.0000
     35  C5         0.3530   48.4190   14.9820 C.3   2991  CDC2991     0.0000
     36  C6         1.2930   49.2280   14.3450 C.3   2991  CDC2991     0.0000
     37  O2         1.4890   51.8660   16.6430 O.3   2991  CDC2991     0.0000
     38  N4        -1.0710   48.2360   16.8680 N.2   2991  CDC2991     0.5000
     39  C1'        2.7540   51.2850   14.1360 C.3   2991  CDC2991     0.0000
     40  C2'        3.9970   50.5380   13.6860 C.3   2991  CDC2991     0.0000
     41  O2'        4.9180   50.3920   14.7390 O.3   2991  CDC2991     0.0000
     42  C3'        4.4720   51.3640   12.5290 C.3   2991  CDC2991     0.0000
     43  C4'        3.2400   52.1460   12.0340 C.3   2991  CDC2991     0.0000
     44  O4'        2.1890   51.7410   12.9100 O.3   2991  CDC2991     0.0000
     45  O3'        5.4430   52.3630   12.8410 O.3   2991  CDC2991     0.0000
     46  C5'        3.2110   51.6180   10.6390 C.3   2991  CDC2991     0.0000
     47  O5'        2.2070   50.6790   10.3510 O.3   2991  CDC2991     0.0000
     48  PA         2.6820   49.1910    9.7750 P.3   2991  CDC2991     0.0000
     49  O1A        2.5340   48.1390   10.9260 O.3   2991  CDC2991    -0.5000
     50  O2A        4.1870   49.3220    9.4110 O.2   2991  CDC2991    -0.5000
     51  O3A        1.7740   48.7470    8.4450 O.3   2991  CDC2991     0.0000
     52  PB         1.6530   49.6440    7.0710 P.3   2991  CDC2991     0.0000
     53  O1B        0.7540   51.0040    7.3530 O.3   2991  CDC2991     0.0000
     54  O2B        3.0680   49.8820    6.4710 O.3   2991  CDC2991    -0.5000
     55  O3B        0.7600   48.7820    6.1140 O.2   2991  CDC2991    -0.5000
     56  C14        0.4710   51.7100    6.1990 C.3   2991  CDC2991     0.0000
     57  C15       -0.4260   52.9390    6.5560 C.3   2991  CDC2991     0.0000
     58  N11       -1.6730   53.0720    5.7020 N.4   2991  CDC2991     0.0000
     59  C16       -2.7930   53.6390    6.4810 C.3   2991  CDC2991     0.0000
     60  C17       -1.3490   53.9460    4.5630 C.3   2991  CDC2991     0.0000
     61  C18       -2.1120   51.7540    5.1660 C.3   2991  CDC2991     0.0000
@<TRIPOS>BOND
     1     1    24    1
     2     2     7    1
     3     2     3    1
     4     3     4    1
     5     4     8    2
     6     4     5    1
     7     5     6    1
     8     9    10    1
     9     9    14    1
    10    10    11    1
    11    10    12    1
    12    12    15    1
    13    12    13    1
    14    13    14    1
    15    13    16    1
    16    16    17    1
    17    17    18    1
    18    18    19    2
    19    18    20    1
    20    18    21    1
    21    21    22    1
    22    22    23    1
    23    22    24    1
    24    22    25    2
    25    23    26    1
    26    26    27    1
    27    27    28    1
    28    28    29    1
    29    28    31    1
    30    28    30    1
    31    32    37    1
    32    32    33    1
    33    33    34    1
    34    34    35    1
    35    34    38    2
    36    35    36    1
    37    39    44    1
    38    39    40    1
    39    40    42    1
    40    40    41    1
    41    42    43    1
    42    42    45    1
    43    43    46    1
    44    43    44    1
    45    46    47    1
    46    47    48    1
    47    48    51    1
    48    48    50    2
    49    48    49    1
    50    51    52    1
    51    52    55    2
    52    52    54    1
    53    52    53    1
    54    53    56    1
    55    56    57    1
    56    57    58    1
    57    58    60    1
    58    58    61    1
    59    58    59    1
    60    20     1    1
