@<TRIPOS>MOLECULE
1mlz_TZA_1_ligand
   28    28     1     0     0
SMALL
NO_CHARGES


@<TRIPOS>ATOM
     1 NH          44.8370    -0.9140    17.2400 N.pl3        1 TZA531   0.0000
     2 CZ          45.4430    -0.5580    16.0940 C.ar         1 TZA531   0.0000
     3 CE2         45.0610     0.6180    15.4520 C.ar         1 TZA531   0.0000
     4 CD2         45.6870     1.0000    14.2600 C.ar         1 TZA531   0.0000
     5 CE1         46.4480    -1.3550    15.5740 C.ar         1 TZA531   0.0000
     6 CD1         47.0710    -0.9860    14.4020 C.ar         1 TZA531   0.0000
     7 CG          46.7370     0.2090    13.7760 C.ar         1 TZA531   0.0000
     8 CX          47.2770     0.3370    12.4250 C.3          1 TZA531   0.0000
     9 CB          46.4170    -0.5160    11.4650 C.3          1 TZA531   0.0000
    10 CA          46.8760    -0.5240     9.9970 C.3          1 TZA531   0.0000
    11 N           48.0450    -1.3860    10.0140 N.4          1 TZA531   1.0000
    12 C           47.2170     0.8360     9.4750 C.2          1 TZA531   0.0000
    13 O           46.3650     1.6840     9.3710 O.co2        1 TZA531   0.0000
    14 O2          48.3550     1.1000     9.1370 O.co2        1 TZA531  -1.0000
    15 HH1         45.1055    -1.7566    17.7068 H            1 TZA531   0.0000
    16 HH2         44.1177    -0.3362    17.6257 H            1 TZA531   0.0000
    17 HE2         44.3394     1.1893    15.8430 H            1 TZA531   0.0000
    18 HD2         45.3919     1.8177    13.7658 H            1 TZA531   0.0000
    19 HE1         46.7202    -2.1935    16.0461 H            1 TZA531   0.0000
    20 HD1         47.7669    -1.5809    13.9998 H            1 TZA531   0.0000
    21 HX1         48.2226     0.0121    12.4084 H            1 TZA531   0.0000
    22 HX2         47.2487     1.2953    12.1407 H            1 TZA531   0.0000
    23 HB1         45.4815    -0.1637    11.4936 H            1 TZA531   0.0000
    24 HB2         46.4283    -1.4593    11.7967 H            1 TZA531   0.0000
    25 HA          46.1652    -0.9341     9.4256 H            1 TZA531   0.0000
    26 H12         48.1325    -1.8465     9.1307 H            1 TZA531   0.0000
    27 H13         48.8623    -0.8359    10.1855 H            1 TZA531   0.0000
    28 H14         47.9450    -2.0690    10.7375 H            1 TZA531   0.0000
@<TRIPOS>BOND
     1    1    2       1
     2    2    3      ar
     3    2    5      ar
     4    3    4      ar
     5    4    7      ar
     6    5    6      ar
     7    6    7      ar
     8    7    8       1
     9    8    9       1
    10    9   10       1
    11   10   11       1
    12   10   12       1
    13   12   13      ar
    14   12   14      ar
    15    1   15       1
    16    1   16       1
    17    3   17       1
    18    4   18       1
    19    5   19       1
    20    6   20       1
    21    8   21       1
    22    8   22       1
    23    9   23       1
    24    9   24       1
    25   10   25       1
    26   11   26       1
    27   11   27       1
    28   11   28       1
@<TRIPOS>SUBSTRUCTURE
     1 TZA531      1 GROUP             4 B     TZA     0 **** TZA B 531
