@<TRIPOS>MOLECULE
5htp_ANP_1_ligand
   44    46     1     0     0
SMALL
NO_CHARGES


@<TRIPOS>ATOM
     1 PG         -16.6930    -3.8560    13.1080 P.3          1 ANP501   0.0000
     2 O1G        -16.9920    -2.6000    12.2240 O.co2        1 ANP501   0.0000
     3 O2G        -15.2530    -3.8610    13.4770 O.co2        1 ANP501  -1.0000
     4 O3G        -17.5310    -3.8040    14.4250 O.co2        1 ANP501  -1.0000
     5 PB         -16.8550    -5.2250    10.6140 P.3          1 ANP501   0.0000
     6 O1B        -17.8460    -6.2220     9.9450 O.co2        1 ANP501   0.0000
     7 O2B        -17.1460    -3.8700    10.0830 O.co2        1 ANP501  -1.0000
     8 N3B        -17.0380    -5.2890    12.2780 N.3          1 ANP501   0.0000
     9 PA         -14.1870    -4.5840    10.0500 P.3          1 ANP501   0.0000
    10 O1A        -12.9420    -5.4410    10.3440 O.co2        1 ANP501   0.0000
    11 O2A        -14.3320    -3.4120    10.9330 O.co2        1 ANP501  -1.0000
    12 O3A        -15.4030    -5.6140    10.1680 O.3          1 ANP501   0.0000
    13 O5'        -14.2050    -4.0660     8.5500 O.3          1 ANP501   0.0000
    14 C5'        -14.2430    -5.0400     7.4770 C.3          1 ANP501   0.0000
    15 C4'        -14.0840    -4.3420     6.1590 C.3          1 ANP501   0.0000
    16 O4'        -12.7460    -3.7970     6.0810 O.3          1 ANP501   0.0000
    17 C3'        -14.2590    -5.2240     4.9220 C.3          1 ANP501   0.0000
    18 O3'        -15.4680    -5.0160     4.1890 O.3          1 ANP501   0.0000
    19 C2'        -13.0290    -4.8910     4.0510 C.3          1 ANP501   0.0000
    20 O2'        -13.3680    -4.6600     2.6910 O.3          1 ANP501   0.0000
    21 C1'        -12.4400    -3.6460     4.7190 C.3          1 ANP501   0.0000
    22 N9         -10.9860    -3.5600     4.5780 N.pl3        1 ANP501   0.0000
    23 C8         -10.0690    -4.5350     4.8820 C.2          1 ANP501   0.0000
    24 N7          -8.8220    -4.2060     4.6350 N.2          1 ANP501   0.0000
    25 C5          -8.9210    -2.9200     4.0990 C.ar         1 ANP501   0.0000
    26 C6          -7.9450    -2.0030     3.6280 C.ar         1 ANP501   0.0000
    27 N6          -6.6400    -2.2290     3.6090 N.pl3        1 ANP501   0.0000
    28 N1          -8.3880    -0.8230     3.1660 N.ar         1 ANP501   0.0000
    29 C2          -9.7040    -0.5770     3.1810 C.ar         1 ANP501   0.0000
    30 N3         -10.7200    -1.3450     3.5980 N.ar         1 ANP501   0.0000
    31 C4         -10.2520    -2.5140     4.0510 C.ar         1 ANP501   0.0000
    32 H3B        -17.9868    -5.5369    12.4737 H            1 ANP501   0.0000
    33 H5'1       -15.1193    -5.5214     7.4952 H            1 ANP501   0.0000
    34 H5'2       -13.4991    -5.6973     7.5975 H            1 ANP501   0.0000
    35 H4'        -14.7408    -3.5894     6.1126 H            1 ANP501   0.0000
    36 H3'        -14.2093    -6.1836     5.1990 H            1 ANP501   0.0000
    37 H6         -15.2474    -4.7356     3.2548 H            1 ANP501   0.0000
    38 H2'        -12.3699    -5.6410     4.1063 H            1 ANP501   0.0000
    39 H8         -12.8920    -5.3217     2.1118 H            1 ANP501   0.0000
    40 H1'        -12.8727    -2.8207     4.3562 H            1 ANP501   0.0000
    41 H10        -10.3293    -5.4232     5.2606 H            1 ANP501   0.0000
    42 H11         -6.0164    -1.5294     3.2602 H            1 ANP501   0.0000
    43 H12         -6.2783    -3.0993     3.9434 H            1 ANP501   0.0000
    44 H13         -9.9702     0.3191     2.8258 H            1 ANP501   0.0000
@<TRIPOS>BOND
     1    1    2      ar
     2    1    3      ar
     3    1    4      ar
     4    1    8       1
     5    5    6      ar
     6    5    7      ar
     7    5    8       1
     8    5   12       1
     9    9   10      ar
    10    9   11      ar
    11    9   12       1
    12    9   13       1
    13   13   14       1
    14   14   15       1
    15   15   16       1
    16   15   17       1
    17   16   21       1
    18   17   18       1
    19   17   19       1
    20   19   20       1
    21   19   21       1
    22   21   22       1
    23   22   23       1
    24   22   31       1
    25   23   24       2
    26   24   25       1
    27   25   26      ar
    28   25   31      ar
    29   26   27       1
    30   26   28      ar
    31   28   29      ar
    32   29   30      ar
    33   30   31      ar
    34   29   44       1
    35   27   43       1
    36   27   42       1
    37    8   32       1
    38   23   41       1
    39   14   33       1
    40   14   34       1
    41   15   35       1
    42   17   36       1
    43   18   37       1
    44   19   38       1
    45   20   39       1
    46   21   40       1
@<TRIPOS>SUBSTRUCTURE
     1 ANP501      1 GROUP             4 A     ANP     0 **** ANP A 501
