@<TRIPOS>MOLECULE
3e78_TPP_1_ligand
   42    43     1     0     0
SMALL
NO_CHARGES


@<TRIPOS>ATOM
     1 N1'         27.4240    33.7340    32.4880 N.ar         1 TPP551   0.0000
     2 C2'         26.6000    32.7910    31.9710 C.ar         1 TPP551   0.0000
     3 CM2         25.1480    33.1110    31.6320 C.3          1 TPP551   0.0000
     4 N3'         27.0860    31.5530    31.7050 N.ar         1 TPP551   0.0000
     5 C4'         28.3820    31.2720    32.0000 C.ar         1 TPP551   0.0000
     6 N4'         28.8320    30.0460    31.7400 N.pl3        1 TPP551   0.0000
     7 C5'         29.2450    32.2290    32.5520 C.ar         1 TPP551   0.0000
     8 C6'         28.7020    33.4970    32.7870 C.ar         1 TPP551   0.0000
     9 C7'         30.7140    31.9780    32.9060 C.3          1 TPP551   0.0000
    10 N3          31.7080    32.3390    31.8770 N.2          1 TPP551   1.0000
    11 C2          31.3770    32.3820    30.5750 C.2          1 TPP551   0.0000
    12 S1          32.7890    32.8110    29.6630 S.3          1 TPP551   0.0000
    13 C5          33.8120    32.9120    31.0660 C.2          1 TPP551   0.0000
    14 C4          33.0000    32.6540    32.1630 C.2          1 TPP551   0.0000
    15 CM4         33.6070    32.6540    33.5770 C.3          1 TPP551   0.0000
    16 C6          35.2600    33.4020    30.9750 C.3          1 TPP551   0.0000
    17 C7          36.2140    32.2310    30.6890 C.3          1 TPP551   0.0000
    18 O7          36.0560    31.2710    31.7470 O.3          1 TPP551   0.0000
    19 PA          36.4040    29.7240    31.5610 P.3          1 TPP551   0.0000
    20 O1A         35.8490    28.9680    32.7070 O.co2        1 TPP551   0.0000
    21 O2A         35.9240    29.2780    30.2190 O.co2        1 TPP551  -1.0000
    22 O3A         37.9550    29.6150    31.4850 O.3          1 TPP551   0.0000
    23 PB          38.9030    29.4100    32.7290 P.3          1 TPP551   0.0000
    24 O1B         38.7940    30.5640    33.6760 O.co2        1 TPP551   0.0000
    25 O2B         40.3270    29.2790    32.0400 O.co2        1 TPP551  -1.0000
    26 O3B         38.5650    28.0260    33.4480 O.co2        1 TPP551  -1.0000
    27 HM21        24.7037    32.2941    31.2642 H            1 TPP551   0.0000
    28 HM22        24.6700    33.4066    32.4591 H            1 TPP551   0.0000
    29 HM23        25.1182    33.8421    30.9504 H            1 TPP551   0.0000
    30 H4'1        29.7812    29.8077    31.9456 H            1 TPP551   0.0000
    31 H4'2        28.2208    29.3636    31.3391 H            1 TPP551   0.0000
    32 H6'         29.2694    34.2221    33.1773 H            1 TPP551   0.0000
    33 H7'1        30.8177    31.0025    33.1002 H            1 TPP551   0.0000
    34 H7'2        30.9230    32.5058    33.7292 H            1 TPP551   0.0000
    35 H9          30.4701    32.1978    30.1961 H            1 TPP551   0.0000
    36 HM41        34.5699    32.9193    33.5264 H            1 TPP551   0.0000
    37 HM42        33.1117    33.3049    34.1524 H            1 TPP551   0.0000
    38 HM43        33.5339    31.7379    33.9711 H            1 TPP551   0.0000
    39 H13         35.5166    33.8301    31.8415 H            1 TPP551   0.0000
    40 H14         35.3336    34.0729    30.2371 H            1 TPP551   0.0000
    41 H15         37.1584    32.5590    30.6648 H            1 TPP551   0.0000
    42 H16         35.9844    31.8112    29.8109 H            1 TPP551   0.0000
@<TRIPOS>BOND
     1    1    2      ar
     2    1    8      ar
     3    2    3       1
     4    2    4      ar
     5    4    5      ar
     6    5    6       1
     7    5    7      ar
     8    7    8      ar
     9    7    9       1
    10    9   10       1
    11   10   11       2
    12   10   14       1
    13   11   12       1
    14   12   13       1
    15   13   14       2
    16   13   16       1
    17   14   15       1
    18   16   17       1
    19   17   18       1
    20   18   19       1
    21   19   20      ar
    22   19   21      ar
    23   19   22       1
    24   22   23       1
    25   23   24      ar
    26   23   25      ar
    27   23   26      ar
    28    3   27       1
    29    3   28       1
    30    3   29       1
    31    6   30       1
    32    6   31       1
    33    8   32       1
    34    9   33       1
    35    9   34       1
    36   11   35       1
    37   15   36       1
    38   15   37       1
    39   15   38       1
    40   16   39       1
    41   16   40       1
    42   17   41       1
    43   17   42       1
@<TRIPOS>SUBSTRUCTURE
     1 TPP551      1 GROUP             4 A     TPP     0 **** TPP A 551
