@<TRIPOS>MOLECULE
3mdt_VOR_2_ligand
   39    41     1     0     0
SMALL
NO_CHARGES


@<TRIPOS>ATOM
     1 F1          31.8490   -64.8340   -62.1610 F            1 VOR506   0.0000
     2 F2          29.1050   -62.0350   -64.3900 F            1 VOR506   0.0000
     3 F3          27.8350   -67.1690   -62.9330 F            1 VOR506   0.0000
     4 O4          29.4840   -61.7890   -60.2780 O.3          1 VOR506   0.0000
     5 N5          32.3860   -62.1270   -59.4430 N.pl3        1 VOR506   0.0000
     6 N6          32.6530   -62.1610   -63.6000 N.ar         1 VOR506   0.0000
     7 N7          33.7080   -61.8110   -59.4800 N.2          1 VOR506   0.0000
     8 N8          32.9420   -61.2220   -57.4430 N.2          1 VOR506   0.0000
     9 N9          32.2970   -63.1580   -65.7580 N.ar         1 VOR506   0.0000
    10 C10         30.4750   -62.3380   -61.1750 C.3          1 VOR506   0.0000
    11 C11         30.7330   -61.2660   -62.2230 C.3          1 VOR506   0.0000
    12 C12         31.6990   -62.7560   -60.4680 C.3          1 VOR506   0.0000
    13 C13         29.7840   -63.6280   -61.6740 C.ar         1 VOR506   0.0000
    14 C14         31.3740   -59.9900   -61.7810 C.3          1 VOR506   0.0000
    15 C15         31.3170   -61.8820   -63.4480 C.ar         1 VOR506   0.0000
    16 C16         30.5280   -64.7810   -62.1200 C.ar         1 VOR506   0.0000
    17 C17         28.3580   -63.7490   -61.6820 C.ar         1 VOR506   0.0000
    18 C18         30.3970   -62.2640   -64.4840 C.ar         1 VOR506   0.0000
    19 C19         29.8610   -65.9750   -62.5290 C.ar         1 VOR506   0.0000
    20 C20         27.6760   -64.9370   -62.1070 C.ar         1 VOR506   0.0000
    21 C21         31.8990   -61.7940   -58.1750 C.2          1 VOR506   0.0000
    22 C22         28.4310   -66.0660   -62.5330 C.ar         1 VOR506   0.0000
    23 C23         30.9330   -62.9070   -65.6410 C.ar         1 VOR506   0.0000
    24 C24         33.1570   -62.7900   -64.7420 C.ar         1 VOR506   0.0000
    25 C25         34.0780   -61.2360   -58.2630 C.2          1 VOR506   0.0000
    26 H1          29.2749   -62.4566   -59.5635 H            1 VOR506   0.0000
    27 H2          29.8166   -60.9864   -62.5096 H            1 VOR506   0.0000
    28 H3          31.4724   -63.6560   -60.0957 H            1 VOR506   0.0000
    29 H4          32.3794   -62.8572   -61.1938 H            1 VOR506   0.0000
    30 H5          31.4825   -59.3817   -62.5672 H            1 VOR506   0.0000
    31 H6          30.7971   -59.5476   -61.0944 H            1 VOR506   0.0000
    32 H7          32.2712   -60.1871   -61.3857 H            1 VOR506   0.0000
    33 H8          27.8117   -62.9689   -61.3771 H            1 VOR506   0.0000
    34 H9          30.4028   -66.7640   -62.8186 H            1 VOR506   0.0000
    35 H10         26.6766   -64.9719   -62.1041 H            1 VOR506   0.0000
    36 H11         30.9651   -61.9402   -57.8487 H            1 VOR506   0.0000
    37 H12         30.3177   -63.1817   -66.3799 H            1 VOR506   0.0000
    38 H13         34.1368   -62.9729   -64.8230 H            1 VOR506   0.0000
    39 H14         34.9869   -60.8964   -58.0209 H            1 VOR506   0.0000
@<TRIPOS>BOND
     1    1   16       1
     2    2   18       1
     3    3   22       1
     4    4   10       1
     5    5    7       1
     6    5   12       1
     7    5   21       1
     8    6   15      ar
     9    6   24      ar
    10    7   25       2
    11    8   21       2
    12    8   25       1
    13    9   23      ar
    14    9   24      ar
    15   10   11       1
    16   10   12       1
    17   10   13       1
    18   11   14       1
    19   11   15       1
    20   13   16      ar
    21   13   17      ar
    22   15   18      ar
    23   16   19      ar
    24   17   20      ar
    25   18   23      ar
    26   19   22      ar
    27   20   22      ar
    28    4   26       1
    29   11   27       1
    30   12   28       1
    31   12   29       1
    32   14   30       1
    33   14   31       1
    34   14   32       1
    35   17   33       1
    36   19   34       1
    37   20   35       1
    38   21   36       1
    39   23   37       1
    40   24   38       1
    41   25   39       1
@<TRIPOS>SUBSTRUCTURE
     1 VOR506      1 GROUP             4 B     VOR     0 **** VOR B 506
