@<TRIPOS>MOLECULE
4epq_0RR_1_ligand
   44    47     1     0     0
SMALL
NO_CHARGES


@<TRIPOS>ATOM
     1 OAA          9.1050    11.3500     1.1400 O.co2        1 0RR501   0.0000
     2 CAS          7.9940    11.2040     0.5430 C.2          1 0RR501   0.0000
     3 OAD          7.5520    11.9280    -0.3770 O.co2        1 0RR501  -1.0000
     4 CAO          7.0400    10.0490     0.9140 C.3          1 0RR501   0.0000
     5 CAP          6.8680     9.6950     2.4120 C.3          1 0RR501   0.0000
     6 NBE          5.8550     8.6250     2.3540 N.am         1 0RR501   0.0000
     7 CAX          4.5620     9.0150     2.2550 C.2          1 0RR501   0.0000
     8 OAB          4.3010    10.2220     2.2900 O.2          1 0RR501   0.0000
     9 CAZ          6.0200     7.2910     2.3000 C.2          1 0RR501   0.0000
    10 SAE          7.5260     6.4370     2.3760 S.2          1 0RR501   0.0000
    11 SAR          4.5560     6.5300     2.1780 S.3          1 0RR501   0.0000
    12 CBA          3.6490     8.0010     2.1820 C.2          1 0RR501   0.0000
    13 CBB          2.2920     8.0160     2.0330 C.2          1 0RR501   0.0000
    14 CAY          1.5520     6.8990     1.8820 C.2          1 0RR501   0.0000
    15 OAC          1.9820     5.7450     1.9250 O.2          1 0RR501   0.0000
    16 CBC          1.4420     9.0610     1.9040 C.ar         1 0RR501   0.0000
    17 CAN          1.5840    10.3980     1.9440 C.ar         1 0RR501   0.0000
    18 CAT          0.4580    11.2240     1.7900 C.ar         1 0RR501   0.0000
    19 CLF          0.5400    12.9340     1.8110 Cl           1 0RR501   0.0000
    20 CAL         -0.7990    10.6700     1.6000 C.ar         1 0RR501   0.0000
    21 CAM         -0.8790     9.2930     1.5690 C.ar         1 0RR501   0.0000
    22 CBD          0.2040     8.5350     1.7170 C.ar         1 0RR501   0.0000
    23 NBF          0.2640     7.2060     1.7000 N.am         1 0RR501   0.0000
    24 CAQ         -0.9860     6.3380     1.5170 C.3          1 0RR501   0.0000
    25 CAW         -1.8120     6.4150     2.6590 C.ar         1 0RR501   0.0000
    26 CAU         -2.9680     7.2190     2.7160 C.ar         1 0RR501   0.0000
    27 CLG         -3.5120     8.2070     1.3450 Cl           1 0RR501   0.0000
    28 CAJ         -3.7290     7.2550     3.8870 C.ar         1 0RR501   0.0000
    29 CAI         -3.3660     6.5060     5.0010 C.ar         1 0RR501   0.0000
    30 CAK         -2.2270     5.7130     4.9400 C.ar         1 0RR501   0.0000
    31 CAV         -1.4590     5.6630     3.7790 C.ar         1 0RR501   0.0000
    32 CLH         -0.0400     4.6650     3.7200 Cl           1 0RR501   0.0000
    33 HAO1         7.3746     9.2278     0.4517 H            1 0RR501   0.0000
    34 HAO2         6.1355    10.2859     0.5595 H            1 0RR501   0.0000
    35 HAP1         6.5387    10.4803     2.9363 H            1 0RR501   0.0000
    36 HAP2         7.7244     9.3647     2.8088 H            1 0RR501   0.0000
    37 HAN          2.4879    10.8026     2.0829 H            1 0RR501   0.0000
    38 HAL         -1.6112    11.2430     1.4904 H            1 0RR501   0.0000
    39 HAM         -1.7683     8.8564     1.4326 H            1 0RR501   0.0000
    40 HAQ1        -0.7090     5.3878     1.3745 H            1 0RR501   0.0000
    41 HAQ2        -1.4962     6.6596     0.7194 H            1 0RR501   0.0000
    42 HAJ         -4.5475     7.8283     3.9247 H            1 0RR501   0.0000
    43 HAI         -3.9174     6.5378     5.8347 H            1 0RR501   0.0000
    44 HAK         -1.9560     5.1731     5.7369 H            1 0RR501   0.0000
@<TRIPOS>BOND
     1    1    2      ar
     2    2    3      ar
     3    2    4       1
     4    4    5       1
     5    5    6       1
     6    6    7      am
     7    6    9       1
     8    7    8       2
     9    7   12       1
    10    9   10       2
    11    9   11       1
    12   11   12       1
    13   12   13       2
    14   13   14       1
    15   13   16       1
    16   14   15       2
    17   14   23      am
    18   16   17      ar
    19   16   22      ar
    20   17   18      ar
    21   18   19       1
    22   18   20      ar
    23   20   21      ar
    24   21   22      ar
    25   22   23       1
    26   23   24       1
    27   24   25       1
    28   25   26      ar
    29   25   31      ar
    30   26   27       1
    31   26   28      ar
    32   28   29      ar
    33   29   30      ar
    34   30   31      ar
    35   31   32       1
    36   30   44       1
    37    4   33       1
    38    4   34       1
    39    5   35       1
    40    5   36       1
    41   17   37       1
    42   20   38       1
    43   21   39       1
    44   24   40       1
    45   24   41       1
    46   28   42       1
    47   29   43       1
@<TRIPOS>SUBSTRUCTURE
     1 0RR501      1 GROUP             4 A     0RR     0 **** 0RR A 501
