@<TRIPOS>MOLECULE
1yhj_R6C_1_ligand
   52    54     1     0     0
SMALL
NO_CHARGES


@<TRIPOS>ATOM
     1 OAP         12.9360    62.4520    -0.8200 O.3          1 R6C313   0.0000
     2 CAQ         12.9770    61.1000    -0.4640 C.3          1 R6C313   0.0000
     3 CAR         13.9360    60.9720     0.7160 C.3          1 R6C313   0.0000
     4 CAK         13.0470    60.7770     1.9680 C.3          1 R6C313   0.0000
     5 CAI         13.0920    59.4310     2.6660 C.3          1 R6C313   0.0000
     6 NAS         14.7700    59.8320     0.2970 N.pl3        1 R6C313   0.0000
     7 CAT         15.9870    59.4100     0.7800 C.ar         1 R6C313   0.0000
     8 NAU         16.5620    60.0860     1.8310 N.ar         1 R6C313   0.0000
     9 CAV         17.7370    59.6300     2.3820 C.ar         1 R6C313   0.0000
    10 NAW         18.4250    60.1750     3.3850 N.pl3        1 R6C313   0.0000
    11 CAZ         17.8050    61.3670     4.0200 C.3          1 R6C313   0.0000
    12 CAY         17.3860    60.9980     5.4350 C.3          1 R6C313   0.0000
    13 CBA         18.7670    62.5260     3.8890 C.3          1 R6C313   0.0000
    14 CAX         19.5500    59.3990     3.5590 C.2          1 R6C313   0.0000
    15 CAN         18.4340    58.5550     1.8810 C.ar         1 R6C313   0.0000
    16 NAO         19.5940    58.3620     2.6350 N.2          1 R6C313   1.0000
    17 NAL         16.6510    58.3290     0.2810 N.ar         1 R6C313   0.0000
    18 CAM         17.8280    57.8610     0.7970 C.ar         1 R6C313   0.0000
    19 OAJ         18.4500    56.7750     0.2480 O.3          1 R6C313   0.0000
    20 CAD         18.9440    55.6730     1.0630 C.3          1 R6C313   0.0000
    21 CAE         17.9180    54.6520     1.5290 C.ar         1 R6C313   0.0000
    22 CAG         17.8430    54.3240     2.9150 C.ar         1 R6C313   0.0000
    23 CAH         16.8950    53.3720     3.3640 C.ar         1 R6C313   0.0000
    24 CAF         16.0140    52.7410     2.4390 C.ar         1 R6C313   0.0000
    25 CAC         16.0820    53.0640     1.0580 C.ar         1 R6C313   0.0000
    26 CAB         17.0340    54.0160     0.6000 C.ar         1 R6C313   0.0000
    27 HAP         12.3144    62.5743    -1.5937 H            1 R6C313   0.0000
    28 HAQ1        13.3062    60.5530    -1.2337 H            1 R6C313   0.0000
    29 HAQ2        12.0646    60.7878    -0.1992 H            1 R6C313   0.0000
    30 HAR         14.4921    61.7982     0.8066 H            1 R6C313   0.0000
    31 HAK1        12.1001    60.9365     1.6890 H            1 R6C313   0.0000
    32 HAK2        13.3185    61.4689     2.6370 H            1 R6C313   0.0000
    33 HAI1        12.4748    59.4427     3.4527 H            1 R6C313   0.0000
    34 HAI2        12.8063    58.7153     2.0287 H            1 R6C313   0.0000
    35 HAI3        14.0246    59.2477     2.9768 H            1 R6C313   0.0000
    36 HAS         14.3954    59.2830    -0.4502 H            1 R6C313   0.0000
    37 HAZ         16.9787    61.5943     3.5047 H            1 R6C313   0.0000
    38 HAY1        16.9664    61.7914     5.8760 H            1 R6C313   0.0000
    39 HAY2        16.7263    60.2472     5.4022 H            1 R6C313   0.0000
    40 HAY3        18.1899    60.7129     5.9570 H            1 R6C313   0.0000
    41 HBA1        18.3678    63.3399     4.3111 H            1 R6C313   0.0000
    42 HBA2        19.6260    62.2997     4.3482 H            1 R6C313   0.0000
    43 HBA3        18.9435    62.7049     2.9211 H            1 R6C313   0.0000
    44 HAX         20.2450    59.5610     4.2596 H            1 R6C313   0.0000
    45 HAD1        19.3708    56.0664     1.8773 H            1 R6C313   0.0000
    46 HAD2        19.6339    55.1860     0.5273 H            1 R6C313   0.0000
    47 HAG         18.4583    54.7651     3.5684 H            1 R6C313   0.0000
    48 HAH         16.8438    53.1415     4.3357 H            1 R6C313   0.0000
    49 HAF         15.3470    52.0699     2.7627 H            1 R6C313   0.0000
    50 HAC         15.4620    52.6231     0.4090 H            1 R6C313   0.0000
    51 HAB         17.0860    54.2415    -0.3728 H            1 R6C313   0.0000
    52 HAO         20.2884    57.6496     2.5342 H            1 R6C313   0.0000
@<TRIPOS>BOND
     1    1    2       1
     2    2    3       1
     3    3    4       1
     4    3    6       1
     5    4    5       1
     6    6    7       1
     7    7    8      ar
     8    7   17      ar
     9    8    9      ar
    10    9   10       1
    11    9   15      ar
    12   10   11       1
    13   10   14       1
    14   11   12       1
    15   11   13       1
    16   14   16       2
    17   15   16       1
    18   15   18      ar
    19   17   18      ar
    20   18   19       1
    21   19   20       1
    22   20   21       1
    23   21   22      ar
    24   21   26      ar
    25   22   23      ar
    26   23   24      ar
    27   24   25      ar
    28   25   26      ar
    29    1   27       1
    30    2   28       1
    31    2   29       1
    32    3   30       1
    33    4   31       1
    34    4   32       1
    35    5   33       1
    36    5   34       1
    37    5   35       1
    38    6   36       1
    39   11   37       1
    40   12   38       1
    41   12   39       1
    42   12   40       1
    43   13   41       1
    44   13   42       1
    45   13   43       1
    46   14   44       1
    47   20   45       1
    48   20   46       1
    49   22   47       1
    50   23   48       1
    51   24   49       1
    52   25   50       1
    53   26   51       1
    54   16   52       1
@<TRIPOS>SUBSTRUCTURE
     1 R6C313      1 GROUP             4 A     R6C     0 **** R6C A 313
