@<TRIPOS>MOLECULE
1jr8_FAD_2_ligand
   84    89     1     0     0
SMALL
NO_CHARGES


@<TRIPOS>ATOM
     1 PA          12.8250   -12.5130     7.3230 P.3          1 FAD334   0.0000
     2 O1A         14.2250   -12.3440     7.8080 O.co2        1 FAD334   0.0000
     3 O2A         11.6320   -12.2390     8.1860 O.co2        1 FAD334  -1.0000
     4 O5B         12.6650   -11.8730     5.9110 O.3          1 FAD334   0.0000
     5 C5B         11.4860   -11.3160     5.3270 C.3          1 FAD334   0.0000
     6 C4B         11.8320   -11.5630     3.8750 C.3          1 FAD334   0.0000
     7 O4B         12.3970   -10.3020     3.4510 O.3          1 FAD334   0.0000
     8 C3B         12.5530   -12.7290     3.1480 C.3          1 FAD334   0.0000
     9 O3B         11.7510   -13.8990     2.9610 O.3          1 FAD334   0.0000
    10 C2B         13.1190   -12.0220     2.0000 C.3          1 FAD334   0.0000
    11 O2B         12.3370   -11.8580     0.8570 O.3          1 FAD334   0.0000
    12 C1B         13.4360   -10.6090     2.5100 C.3          1 FAD334   0.0000
    13 N9A         14.7290   -10.3170     3.0460 N.pl3        1 FAD334   0.0000
    14 C8A         15.6870   -11.1200     3.7250 C.2          1 FAD334   0.0000
    15 N7A         16.7790   -10.4970     4.0270 N.2          1 FAD334   0.0000
    16 C5A         16.5760    -9.1990     3.5600 C.ar         1 FAD334   0.0000
    17 C6A         17.3830    -8.0410     3.5520 C.ar         1 FAD334   0.0000
    18 N6A         18.6200    -8.1230     4.0670 N.pl3        1 FAD334   0.0000
    19 N1A         16.9540    -6.8460     3.0030 N.ar         1 FAD334   0.0000
    20 C2A         15.7260    -6.7130     2.4250 C.ar         1 FAD334   0.0000
    21 N3A         14.9030    -7.8520     2.4470 N.ar         1 FAD334   0.0000
    22 C4A         15.3760    -9.0760     3.0100 C.ar         1 FAD334   0.0000
    23 N1          14.7940   -13.2110    15.5610 N.2          1 FAD334   0.0000
    24 C2          15.5860   -13.9120    16.4440 C.2          1 FAD334   0.0000
    25 O2          15.3100   -15.1170    16.5820 O.2          1 FAD334   0.0000
    26 N3          16.5400   -13.0830    17.0190 N.pl3        1 FAD334   0.0000
    27 C4          16.7470   -11.7080    16.7410 C.2          1 FAD334   0.0000
    28 O4          17.5980   -11.0570    17.4280 O.2          1 FAD334   0.0000
    29 C4X         15.9110   -11.0870    15.8360 C.2          1 FAD334   0.0000
    30 N5          15.9130    -9.6690    15.6220 N.2          1 FAD334   0.0000
    31 C5X         14.9490    -8.9470    14.8680 C.ar         1 FAD334   0.0000
    32 C6          15.0470    -7.5410    14.7720 C.ar         1 FAD334   0.0000
    33 C7          14.1140    -6.8420    13.9570 C.ar         1 FAD334   0.0000
    34 C7M         14.2460    -5.3170    13.9200 C.3          1 FAD334   0.0000
    35 C8          13.1100    -7.5510    13.2330 C.ar         1 FAD334   0.0000
    36 C8M         12.0460    -7.0700    12.2640 C.3          1 FAD334   0.0000
    37 C9          13.0170    -8.9420    13.3650 C.ar         1 FAD334   0.0000
    38 C9A         13.8680    -9.7110    14.2020 C.ar         1 FAD334   0.0000
    39 N10         14.0330   -11.1730    14.4150 N.pl3        1 FAD334   0.0000
    40 C10         14.8900   -11.8780    15.2220 C.2          1 FAD334   0.0000
    41 C1'         13.2540   -12.0250    13.5740 C.3          1 FAD334   0.0000
    42 C2'         13.8090   -12.5060    12.2680 C.3          1 FAD334   0.0000
    43 O2'         14.6830   -11.4770    11.7310 O.3          1 FAD334   0.0000
    44 C3'         12.8870   -13.0160    11.2070 C.3          1 FAD334   0.0000
    45 O3'         11.9920   -11.9820    10.8320 O.3          1 FAD334   0.0000
    46 C4'         12.1930   -14.3600    11.3320 C.3          1 FAD334   0.0000
    47 O4'         13.0720   -15.3840    11.8850 O.3          1 FAD334   0.0000
    48 C5'         11.5230   -14.8890    10.1360 C.3          1 FAD334   0.0000
    49 O5'         12.4960   -15.1800     9.1320 O.3          1 FAD334   0.0000
    50 P           12.2400   -15.3850     7.6050 P.3          1 FAD334   0.0000
    51 O1P         13.2010   -16.4490     7.3070 O.co2        1 FAD334   0.0000
    52 O2P         10.8300   -15.6750     7.2480 O.co2        1 FAD334  -1.0000
    53 O3P         12.6580   -14.0240     6.8610 O.3          1 FAD334   0.0000
    54 H5B1        11.3856   -10.3424     5.5320 H            1 FAD334   0.0000
    55 H5B2        10.6585   -11.8026     5.6071 H            1 FAD334   0.0000
    56 H4B         10.9341   -11.5563     3.4348 H            1 FAD334   0.0000
    57 H3B         13.3221   -12.9975     3.7279 H            1 FAD334   0.0000
    58 H5          11.2689   -13.8365     2.0871 H            1 FAD334   0.0000
    59 H2B         13.9755   -12.4680     1.7403 H            1 FAD334   0.0000
    60 H7          12.8588   -11.3593     0.1649 H            1 FAD334   0.0000
    61 H1B         13.3058    -9.9923     1.7337 H            1 FAD334   0.0000
    62 H8A         15.5297   -12.0818     3.9491 H            1 FAD334   0.0000
    63 H6A1        19.2130    -7.3178     4.0741 H            1 FAD334   0.0000
    64 H6A2        18.9484    -8.9892     4.4435 H            1 FAD334   0.0000
    65 H2A         15.4280    -5.8538     2.0091 H            1 FAD334   0.0000
    66 H13         17.1435   -13.4986    17.6995 H            1 FAD334   0.0000
    67 H14         15.7599    -7.0457    15.2684 H            1 FAD334   0.0000
    68 H7M1        13.5429    -4.9360    13.3195 H            1 FAD334   0.0000
    69 H7M2        14.1307    -4.9499    14.8430 H            1 FAD334   0.0000
    70 H7M3        15.1506    -5.0690    13.5733 H            1 FAD334   0.0000
    71 H8M1        11.5098    -7.8508    11.9432 H            1 FAD334   0.0000
    72 H8M2        11.4436    -6.4194    12.7264 H            1 FAD334   0.0000
    73 H8M3        12.4834    -6.6228    11.4838 H            1 FAD334   0.0000
    74 H21         12.3123    -9.4202    12.8408 H            1 FAD334   0.0000
    75 H1'1        12.4113   -11.5295    13.3637 H            1 FAD334   0.0000
    76 H1'2        13.0364   -12.8395    14.1118 H            1 FAD334   0.0000
    77 H2'         14.4070   -13.2742    12.4966 H            1 FAD334   0.0000
    78 H25         15.4038   -11.9036    11.1848 H            1 FAD334   0.0000
    79 H3'         13.4776   -13.1242    10.4073 H            1 FAD334   0.0000
    80 H27         11.7309   -12.0984     9.8737 H            1 FAD334   0.0000
    81 H4'         11.4704   -14.2289    12.0107 H            1 FAD334   0.0000
    82 H29         12.5758   -16.2498    11.9496 H            1 FAD334   0.0000
    83 H5'1        10.8781   -14.2089     9.7874 H            1 FAD334   0.0000
    84 H5'2        11.0293   -15.7255    10.3735 H            1 FAD334   0.0000
@<TRIPOS>BOND
     1    1    2      ar
     2    1    3      ar
     3    1    4       1
     4    1   53       1
     5    4    5       1
     6    5    6       1
     7    6    7       1
     8    6    8       1
     9    7   12       1
    10    8    9       1
    11    8   10       1
    12   10   11       1
    13   10   12       1
    14   12   13       1
    15   13   14       1
    16   13   22       1
    17   14   15       2
    18   15   16       1
    19   16   17      ar
    20   16   22      ar
    21   17   18       1
    22   17   19      ar
    23   19   20      ar
    24   20   21      ar
    25   21   22      ar
    26   23   24       1
    27   23   40       2
    28   24   25       2
    29   24   26       1
    30   26   27       1
    31   27   28       2
    32   27   29       1
    33   29   30       2
    34   29   40       1
    35   30   31       1
    36   31   32      ar
    37   31   38      ar
    38   32   33      ar
    39   33   34       1
    40   33   35      ar
    41   35   36       1
    42   35   37      ar
    43   37   38      ar
    44   38   39       1
    45   39   40       1
    46   39   41       1
    47   41   42       1
    48   42   43       1
    49   42   44       1
    50   44   45       1
    51   44   46       1
    52   46   47       1
    53   46   48       1
    54   48   49       1
    55   49   50       1
    56   50   51      ar
    57   50   52      ar
    58   50   53       1
    59   48   84       1
    60    5   54       1
    61    5   55       1
    62    6   56       1
    63    8   57       1
    64    9   58       1
    65   10   59       1
    66   11   60       1
    67   12   61       1
    68   14   62       1
    69   18   63       1
    70   18   64       1
    71   20   65       1
    72   26   66       1
    73   32   67       1
    74   34   68       1
    75   34   69       1
    76   34   70       1
    77   36   71       1
    78   36   72       1
    79   36   73       1
    80   37   74       1
    81   41   75       1
    82   41   76       1
    83   42   77       1
    84   43   78       1
    85   44   79       1
    86   45   80       1
    87   46   81       1
    88   47   82       1
    89   48   83       1
@<TRIPOS>SUBSTRUCTURE
     1 FAD334      1 GROUP             4 B     FAD     0 **** FAD B 334
