@<TRIPOS>MOLECULE
1gpd_NAD_2_ligand
   71    75     1     0     0
SMALL
NO_CHARGES


@<TRIPOS>ATOM
     1 PA           5.2380    -9.6460    18.0820 P.3          1 NAD339   0.0000
     2 O1A          5.3550    -8.2240    18.4790 O.co2        1 NAD339   0.0000
     3 O2A          4.5920    -8.9140    16.9700 O.co2        1 NAD339  -1.0000
     4 O5B          4.9640   -10.5560    19.3690 O.3          1 NAD339   0.0000
     5 C5B          4.5510    -9.9240    20.5960 C.3          1 NAD339   0.0000
     6 C4B          3.4820   -10.7590    21.2740 C.3          1 NAD339   0.0000
     7 O4B          3.7720   -10.8270    22.6970 O.3          1 NAD339   0.0000
     8 C3B          2.0520   -10.2310    21.1580 C.3          1 NAD339   0.0000
     9 O3B          1.1580   -11.3340    21.0890 O.3          1 NAD339   0.0000
    10 C2B          1.8510    -9.5020    22.4860 C.3          1 NAD339   0.0000
    11 O2B          0.4980    -9.3540    22.8790 O.3          1 NAD339   0.0000
    12 C1B          2.6420   -10.3930    23.4380 C.3          1 NAD339   0.0000
    13 N9A          3.1330    -9.6840    24.6530 N.pl3        1 NAD339   0.0000
    14 C8A          2.9260    -8.3770    25.0380 C.2          1 NAD339   0.0000
    15 N7A          3.4940    -8.0630    26.1610 N.2          1 NAD339   0.0000
    16 C5A          4.1240    -9.2350    26.5580 C.ar         1 NAD339   0.0000
    17 C6A          4.9040    -9.5580    27.6800 C.ar         1 NAD339   0.0000
    18 N6A          5.1950    -8.6840    28.6540 N.pl3        1 NAD339   0.0000
    19 N1A          5.3760   -10.8150    27.7650 N.ar         1 NAD339   0.0000
    20 C2A          5.0820   -11.6780    26.7940 C.ar         1 NAD339   0.0000
    21 N3A          4.3680   -11.4930    25.7050 N.ar         1 NAD339   0.0000
    22 C4A          3.9080   -10.2260    25.6440 C.ar         1 NAD339   0.0000
    23 O3           6.6670   -10.1900    17.6090 O.3          1 NAD339   0.0000
    24 PN           7.5150   -10.1110    16.2550 P.3          1 NAD339   0.0000
    25 O1N          7.9330   -11.3430    15.5490 O.co2        1 NAD339   0.0000
    26 O2N          6.5990    -9.1960    15.5380 O.co2        1 NAD339  -1.0000
    27 O5D          8.8090    -9.3040    16.7380 O.3          1 NAD339   0.0000
    28 C5D          9.0260    -9.1140    18.1490 C.3          1 NAD339   0.0000
    29 C4D         10.1680    -9.9920    18.6220 C.3          1 NAD339   0.0000
    30 O4D         10.4810   -10.9030    17.5680 O.3          1 NAD339   0.0000
    31 C3D         11.4760    -9.2680    18.9430 C.3          1 NAD339   0.0000
    32 O3D         12.1170    -9.9360    20.0210 O.3          1 NAD339   0.0000
    33 C2D         12.2940    -9.4670    17.6680 C.3          1 NAD339   0.0000
    34 O2D         13.6960    -9.3600    17.8450 O.3          1 NAD339   0.0000
    35 C1D         11.8640   -10.8700    17.2520 C.3          1 NAD339   0.0000
    36 N1N         12.0090   -11.1330    15.7930 N.pl3        1 NAD339   0.0000
    37 C2N         11.0760   -10.6140    14.9820 C.2          1 NAD339   0.0000
    38 C3N         11.1550   -10.8230    13.6130 C.2          1 NAD339   0.0000
    39 C7N         10.0590   -10.1990    12.8000 C.2          1 NAD339   0.0000
    40 O7N         10.0540   -10.3350    11.5840 O.2          1 NAD339   0.0000
    41 N7N          9.1120    -9.5020    13.4610 N.am         1 NAD339   0.0000
    42 C4N         12.1990   -11.5650    13.1110 C.3          1 NAD339   0.0000
    43 C5N         13.1360   -12.0800    13.9730 C.2          1 NAD339   0.0000
    44 C6N         13.0400   -11.8630    15.3210 C.2          1 NAD339   0.0000
    45 H5B1         4.1837    -9.0162    20.3938 H            1 NAD339   0.0000
    46 H5B2         5.3391    -9.8365    21.2053 H            1 NAD339   0.0000
    47 H4B          3.5125   -11.6847    20.8970 H            1 NAD339   0.0000
    48 H3B          1.9449    -9.6163    20.3766 H            1 NAD339   0.0000
    49 H21          1.2476   -11.8880    21.9167 H            1 NAD339   0.0000
    50 H2B          2.2830    -8.6014    22.4387 H            1 NAD339   0.0000
    51 H22          0.4558    -8.8696    23.7528 H            1 NAD339   0.0000
    52 H1B          2.0877   -11.1812    23.7052 H            1 NAD339   0.0000
    53 H8A          2.3866    -7.7292    24.5001 H            1 NAD339   0.0000
    54 H6A1         5.7559    -8.9697    29.4310 H            1 NAD339   0.0000
    55 H6A2         4.8512    -7.7463    28.6035 H            1 NAD339   0.0000
    56 H2A          5.4576   -12.5976    26.9094 H            1 NAD339   0.0000
    57 H5D1         8.1937    -9.3565    18.6475 H            1 NAD339   0.0000
    58 H5D2         9.2515    -8.1554    18.3231 H            1 NAD339   0.0000
    59 H4D          9.8733   -10.5089    19.4257 H            1 NAD339   0.0000
    60 H3D         11.3262    -8.2995    19.1417 H            1 NAD339   0.0000
    61 H14         12.7234   -10.6448    19.6606 H            1 NAD339   0.0000
    62 H2D         11.9956    -8.8095    16.9761 H            1 NAD339   0.0000
    63 H12         14.1546    -9.5024    16.9678 H            1 NAD339   0.0000
    64 H1D         12.3596   -11.5584    17.7817 H            1 NAD339   0.0000
    65 H7N1         8.3645    -9.0707    12.9557 H            1 NAD339   0.0000
    66 H7N2         9.1574    -9.4165    14.4563 H            1 NAD339   0.0000
    67 H2N         10.3239   -10.0767    15.3637 H            1 NAD339   0.0000
    68 H4N         11.9130   -12.2175    12.4093 H            1 NAD339   0.0000
    69 H5N         13.8967   -12.6194    13.6118 H            1 NAD339   0.0000
    70 H6N         13.7236   -12.2398    15.9460 H            1 NAD339   0.0000
    71 H110        13.3700   -10.0430    12.3660 H            1 NAD339   0.0000
@<TRIPOS>BOND
     1   44   70       1
     2   41   65       1
     3   43   69       1
     4   42   68       1
     5   42   71       1
     6    1    2      ar
     7    1    3      ar
     8    1    4       1
     9    1   23       1
    10    4    5       1
    11    5    6       1
    12    6    7       1
    13    6    8       1
    14    7   12       1
    15    8    9       1
    16    8   10       1
    17   10   11       1
    18   10   12       1
    19   12   13       1
    20   13   14       1
    21   13   22       1
    22   14   15       2
    23   15   16       1
    24   16   17      ar
    25   16   22      ar
    26   17   18       1
    27   17   19      ar
    28   19   20      ar
    29   20   21      ar
    30   21   22      ar
    31   23   24       1
    32   24   25      ar
    33   24   26      ar
    34   24   27       1
    35   27   28       1
    36   28   29       1
    37   29   30       1
    38   29   31       1
    39   30   35       1
    40   31   32       1
    41   31   33       1
    42   33   34       1
    43   33   35       1
    44   35   36       1
    45   36   37       1
    46   36   44       1
    47   37   38       2
    48   38   39       1
    49   38   42       1
    50   39   40       2
    51   39   41      am
    52   42   43       1
    53   43   44       2
    54   37   67       1
    55    5   45       1
    56    5   46       1
    57    6   47       1
    58    8   48       1
    59    9   49       1
    60   10   50       1
    61   11   51       1
    62   12   52       1
    63   14   53       1
    64   18   54       1
    65   18   55       1
    66   20   56       1
    67   41   66       1
    68   28   57       1
    69   28   58       1
    70   29   59       1
    71   31   60       1
    72   32   61       1
    73   33   62       1
    74   34   63       1
    75   35   64       1
@<TRIPOS>SUBSTRUCTURE
     1 NAD339      1 GROUP             4 R     NAD     0 **** NAD R 339
