@<TRIPOS>MOLECULE
4lis_NAD_2_ligand
   70    74     1     0     0
SMALL
NO_CHARGES


@<TRIPOS>ATOM
     1 PA         -19.1890     3.2970    69.2050 P.3          1 NAD402   0.0000
     2 O1A        -18.0780     4.2200    69.5620 O.co2        1 NAD402   0.0000
     3 O2A        -19.6060     2.4060    70.3200 O.co2        1 NAD402  -1.0000
     4 O5B        -18.7630     2.3460    67.9910 O.3          1 NAD402   0.0000
     5 C5B        -17.7830     2.8070    67.0940 C.3          1 NAD402   0.0000
     6 C4B        -16.6430     1.7920    66.9920 C.3          1 NAD402   0.0000
     7 O4B        -15.6580     2.3350    66.1160 O.3          1 NAD402   0.0000
     8 C3B        -15.9260     1.5770    68.3260 C.3          1 NAD402   0.0000
     9 O3B        -15.9490     0.1890    68.5850 O.3          1 NAD402   0.0000
    10 C2B        -14.4950     2.0830    68.0750 C.3          1 NAD402   0.0000
    11 O2B        -13.4550     1.3480    68.7130 O.3          1 NAD402   0.0000
    12 C1B        -14.3740     1.9740    66.5770 C.3          1 NAD402   0.0000
    13 N9A        -13.3670     2.8170    65.9100 N.pl3        1 NAD402   0.0000
    14 C8A        -13.2040     4.1690    66.0600 C.2          1 NAD402   0.0000
    15 N7A        -12.1660     4.5360    65.2870 N.2          1 NAD402   0.0000
    16 C5A        -11.6700     3.4300    64.6490 C.ar         1 NAD402   0.0000
    17 C6A        -10.6190     3.2390    63.7480 C.ar         1 NAD402   0.0000
    18 N6A         -9.8110     4.2390    63.2960 N.pl3        1 NAD402   0.0000
    19 N1A        -10.3950     1.9610    63.2990 N.ar         1 NAD402   0.0000
    20 C2A        -11.1650     0.8810    63.7030 C.ar         1 NAD402   0.0000
    21 N3A        -12.1970     1.0700    64.5880 N.ar         1 NAD402   0.0000
    22 C4A        -12.4370     2.3420    65.0470 C.ar         1 NAD402   0.0000
    23 O3         -20.4030     4.1510    68.6510 O.3          1 NAD402   0.0000
    24 PN         -21.8620     3.6040    68.2900 P.3          1 NAD402   0.0000
    25 O1N        -22.7660     4.3500    69.1650 O.co2        1 NAD402   0.0000
    26 O2N        -21.9580     2.1120    68.1560 O.co2        1 NAD402  -1.0000
    27 O5D        -22.0130     4.1740    66.7890 O.3          1 NAD402   0.0000
    28 C5D        -21.7630     3.3360    65.6810 C.3          1 NAD402   0.0000
    29 C4D        -21.9740     4.1230    64.3810 C.3          1 NAD402   0.0000
    30 O4D        -23.2780     4.6700    64.3900 O.3          1 NAD402   0.0000
    31 C3D        -21.0130     5.2810    64.1840 C.3          1 NAD402   0.0000
    32 O3D        -20.7170     5.3290    62.7950 O.3          1 NAD402   0.0000
    33 C2D        -21.8450     6.4900    64.5890 C.3          1 NAD402   0.0000
    34 O2D        -21.4200     7.6770    63.9570 O.3          1 NAD402   0.0000
    35 C1D        -23.2440     6.0620    64.1470 C.3          1 NAD402   0.0000
    36 N1N        -24.3750     6.6720    64.8610 N.ar         1 NAD402   1.0000
    37 C2N        -24.4590     6.5960    66.2330 C.ar         1 NAD402   0.0000
    38 C3N        -25.4040     7.3310    66.9110 C.ar         1 NAD402   0.0000
    39 C7N        -25.4230     7.3260    68.4020 C.2          1 NAD402   0.0000
    40 O7N        -26.3510     8.1620    68.9960 O.2          1 NAD402   0.0000
    41 N7N        -24.5980     6.5450    69.1060 N.am         1 NAD402   0.0000
    42 C4N        -26.4210     7.9840    66.1990 C.ar         1 NAD402   0.0000
    43 C5N        -26.3300     8.0520    64.8040 C.ar         1 NAD402   0.0000
    44 C6N        -25.3110     7.3730    64.1410 C.ar         1 NAD402   0.0000
    45 H5B1       -17.4203     3.6798    67.4206 H            1 NAD402   0.0000
    46 H5B2       -18.1944     2.9338    66.1914 H            1 NAD402   0.0000
    47 H4B        -16.9832     0.9217    66.6359 H            1 NAD402   0.0000
    48 H3B        -16.3680     2.0902    69.0617 H            1 NAD402   0.0000
    49 H5         -15.4783    -0.2955    67.8477 H            1 NAD402   0.0000
    50 H2B        -14.4326     3.0445    68.3427 H            1 NAD402   0.0000
    51 H7         -13.4747     0.3995    68.3967 H            1 NAD402   0.0000
    52 H1B        -14.2032     1.0184    66.3370 H            1 NAD402   0.0000
    53 H8A        -13.7548     4.7717    66.6374 H            1 NAD402   0.0000
    54 H6A1        -9.0753     4.0341    62.6504 H            1 NAD402   0.0000
    55 H6A2        -9.9538     5.1776    63.6099 H            1 NAD402   0.0000
    56 H2A        -10.9688    -0.0339    63.3502 H            1 NAD402   0.0000
    57 H5D1       -22.3906     2.5578    65.7043 H            1 NAD402   0.0000
    58 H5D2       -20.8201     3.0052    65.7202 H            1 NAD402   0.0000
    59 H4D        -21.8904     3.4969    63.6058 H            1 NAD402   0.0000
    60 H3D        -20.1887     5.1863    64.7422 H            1 NAD402   0.0000
    61 H17        -19.9184     4.7581    62.6044 H            1 NAD402   0.0000
    62 H2D        -21.8206     6.6042    65.5822 H            1 NAD402   0.0000
    63 H19        -20.4686     7.8630    64.2023 H            1 NAD402   0.0000
    64 H1D        -23.3451     6.2281    63.1661 H            1 NAD402   0.0000
    65 H2N        -23.8309     6.0045    66.7386 H            1 NAD402   0.0000
    66 H7N1       -24.6284     6.5582    70.1055 H            1 NAD402   0.0000
    67 H7N2       -23.9503     5.9475    68.6333 H            1 NAD402   0.0000
    68 H4N        -27.1967     8.3934    66.6793 H            1 NAD402   0.0000
    69 H5N        -26.9957     8.5874    64.2842 H            1 NAD402   0.0000
    70 H6N        -25.2609     7.3958    63.1425 H            1 NAD402   0.0000
@<TRIPOS>BOND
     1    1    2      ar
     2    1    3      ar
     3    1    4       1
     4    1   23       1
     5    4    5       1
     6    5    6       1
     7    6    7       1
     8    6    8       1
     9    7   12       1
    10    8    9       1
    11    8   10       1
    12   10   11       1
    13   10   12       1
    14   12   13       1
    15   13   14       1
    16   13   22       1
    17   14   15       2
    18   15   16       1
    19   16   17      ar
    20   16   22      ar
    21   17   18       1
    22   17   19      ar
    23   19   20      ar
    24   20   21      ar
    25   21   22      ar
    26   23   24       1
    27   24   25      ar
    28   24   26      ar
    29   24   27       1
    30   27   28       1
    31   28   29       1
    32   29   30       1
    33   29   31       1
    34   30   35       1
    35   31   32       1
    36   31   33       1
    37   33   34       1
    38   33   35       1
    39   35   36       1
    40   36   37      ar
    41   36   44      ar
    42   37   38      ar
    43   38   39       1
    44   38   42      ar
    45   39   40       2
    46   39   41      am
    47   42   43      ar
    48   43   44      ar
    49   44   70       1
    50    5   45       1
    51    5   46       1
    52    6   47       1
    53    8   48       1
    54    9   49       1
    55   10   50       1
    56   11   51       1
    57   12   52       1
    58   14   53       1
    59   18   54       1
    60   18   55       1
    61   20   56       1
    62   43   69       1
    63   28   57       1
    64   28   58       1
    65   29   59       1
    66   31   60       1
    67   32   61       1
    68   33   62       1
    69   34   63       1
    70   35   64       1
    71   37   65       1
    72   41   66       1
    73   41   67       1
    74   42   68       1
@<TRIPOS>SUBSTRUCTURE
     1 NAD402      1 GROUP             4 C     NAD     0 **** NAD C 402
