@<TRIPOS>MOLECULE
3kif_GDL_2_ligand
   28    28     1     0     0
SMALL
NO_CHARGES


@<TRIPOS>ATOM
     1 C1         -74.8460    13.0390    11.7110 C.2          1 GDL110   0.0000
     2 C2         -74.2690    11.8910    10.8540 C.3          1 GDL110   0.0000
     3 C3         -74.9670    10.7330    11.5270 C.3          1 GDL110   0.0000
     4 C4         -74.5270    10.6250    12.9940 C.3          1 GDL110   0.0000
     5 C5         -75.0740    11.8550    13.7730 C.3          1 GDL110   0.0000
     6 C6         -74.7720    11.9600    15.2990 C.3          1 GDL110   0.0000
     7 C7         -74.3000    12.5160     8.3830 C.2          1 GDL110   0.0000
     8 C8         -74.9800    12.1750     7.0700 C.3          1 GDL110   0.0000
     9 N1         -74.7120    11.7880     9.4420 N.am         1 GDL110   0.0000
    10 O1         -75.6140    13.9090    11.2580 O.2          1 GDL110   0.0000
    11 O3         -74.8390     9.5570    10.7110 O.3          1 GDL110   0.0000
    12 O4         -74.9460     9.3700    13.5700 O.3          1 GDL110   0.0000
    13 O5         -74.5820    13.0730    13.1740 O.3          1 GDL110   0.0000
    14 O6         -74.9630    13.3420    15.7040 O.3          1 GDL110   0.0000
    15 O7         -73.3930    13.3770     8.4130 O.2          1 GDL110   0.0000
    16 H1         -73.2746    11.8266    10.9382 H            1 GDL110   0.0000
    17 H2         -75.9405    10.9611    11.5412 H            1 GDL110   0.0000
    18 H3         -73.5280    10.6602    13.0212 H            1 GDL110   0.0000
    19 H4         -76.0684    11.8539    13.6674 H            1 GDL110   0.0000
    20 H5         -73.8281    11.6821    15.4774 H            1 GDL110   0.0000
    21 H6         -75.3959    11.3681    15.8093 H            1 GDL110   0.0000
    22 H7         -74.6160    12.7591     6.3445 H            1 GDL110   0.0000
    23 H8         -74.8072    11.2163     6.8443 H            1 GDL110   0.0000
    24 H9         -75.9650    12.3249     7.1559 H            1 GDL110   0.0000
    25 H10        -75.4032    11.0911     9.2507 H            1 GDL110   0.0000
    26 H11        -74.0093     9.0615    10.9682 H            1 GDL110   0.0000
    27 H12        -74.2952     9.0941    14.2773 H            1 GDL110   0.0000
    28 H13        -75.2396    13.8863    14.9120 H            1 GDL110   0.0000
@<TRIPOS>BOND
     1    1    2       1
     2    1   10       2
     3    1   13       1
     4    2    3       1
     5    2    9       1
     6    3    4       1
     7    3   11       1
     8    4    5       1
     9    4   12       1
    10    5    6       1
    11    5   13       1
    12    6   14       1
    13    7    8       1
    14    7    9      am
    15    7   15       2
    16    2   16       1
    17    3   17       1
    18    4   18       1
    19    5   19       1
    20    6   20       1
    21    6   21       1
    22    8   22       1
    23    8   23       1
    24    8   24       1
    25    9   25       1
    26   11   26       1
    27   12   27       1
    28   14   28       1
@<TRIPOS>SUBSTRUCTURE
     1 GDL110      1 GROUP             4 B     GDL     0 **** GDL B 110
