@<TRIPOS>MOLECULE
2xnp_WCX_1_ligand
   69    73     1     0     0
SMALL
NO_CHARGES


@<TRIPOS>ATOM
     1 C01        -26.8380    -1.2510    13.6490 C.3          1 WCX1280   0.0000
     2 C02        -26.3110    -1.8480    14.9740 C.3          1 WCX1280   0.0000
     3 O03        -25.0880    -2.4870    14.6880 O.3          1 WCX1280   0.0000
     4 C04        -24.5630    -3.4050    15.6230 C.ar         1 WCX1280   0.0000
     5 C05        -25.3160    -3.7060    16.8750 C.ar         1 WCX1280   0.0000
     6 C06        -24.6990    -4.6340    17.8670 C.ar         1 WCX1280   0.0000
     7 N09        -26.0410    -6.0280    20.8390 N.2          1 WCX1280   0.0000
     8 C08        -25.3470    -6.1620    19.5960 C.2          1 WCX1280   0.0000
     9 N07        -25.3090    -4.9020    19.0310 N.pl3        1 WCX1280   0.0000
    10 C23        -25.9620    -3.9740    19.8690 C.ar         1 WCX1280   0.0000
    11 C22        -26.2190    -2.5100    19.7450 C.ar         1 WCX1280   0.0000
    12 C21        -26.9360    -1.8180    20.8040 C.ar         1 WCX1280   0.0000
    13 C12        -27.3880    -2.5920    21.9420 C.ar         1 WCX1280   0.0000
    14 O13        -28.0810    -1.9690    23.0030 O.3          1 WCX1280   0.0000
    15 C14        -29.0850    -2.8440    23.5230 C.3          1 WCX1280   0.0000
    16 C15        -30.4220    -2.1050    23.7740 C.3          1 WCX1280   0.0000
    17 C16        -30.1890    -0.7550    24.4930 C.3          1 WCX1280   0.0000
    18 N17        -29.3360    -0.8500    25.6920 N.4          1 WCX1280   1.0000
    19 C18        -29.0850     0.4060    26.4420 C.3          1 WCX1280   0.0000
    20 C19        -28.0690    -1.6130    25.4850 C.3          1 WCX1280   0.0000
    21 C20        -28.3150    -3.0170    24.8530 C.3          1 WCX1280   0.0000
    22 C11        -27.1430    -4.0200    22.0610 C.ar         1 WCX1280   0.0000
    23 C10        -26.4270    -4.7070    20.9760 C.ar         1 WCX1280   0.0000
    24 C24        -23.4020    -5.2640    17.6240 C.ar         1 WCX1280   0.0000
    25 C25        -22.6720    -4.9710    16.3600 C.ar         1 WCX1280   0.0000
    26 C26        -23.2520    -4.0380    15.3660 C.ar         1 WCX1280   0.0000
    27 C27        -22.4350    -3.7670    14.0760 C.2          1 WCX1280   0.0000
    28 N28        -22.9500    -2.8950    13.0170 N.am         1 WCX1280   0.0000
    29 O29        -21.3930    -4.3080    13.9570 O.2          1 WCX1280   0.0000
    30 C30        -26.0460    -0.7240    16.0120 C.ar         1 WCX1280   0.0000
    31 C31        -24.7430    -0.0600    16.0460 C.ar         1 WCX1280   0.0000
    32 C32        -24.5160     1.0090    17.0070 C.ar         1 WCX1280   0.0000
    33 C33        -25.5930     1.4160    17.9450 C.ar         1 WCX1280   0.0000
    34 C34        -26.9240     0.7480    17.9050 C.ar         1 WCX1280   0.0000
    35 C35        -27.1460    -0.2940    16.9540 C.ar         1 WCX1280   0.0000
    36 C36        -28.5360    -0.9970    16.9110 C.3          1 WCX1280   0.0000
    37 F39        -29.3350    -0.3830    17.8090 F            1 WCX1280   0.0000
    38 F38        -28.3990    -2.3040    17.2720 F            1 WCX1280   0.0000
    39 F37        -29.1130    -0.9090    15.6580 F            1 WCX1280   0.0000
    40 H1         -27.7086    -0.7878    13.8151 H            1 WCX1280   0.0000
    41 H2         -26.1738    -0.5943    13.2918 H            1 WCX1280   0.0000
    42 H3         -26.9725    -1.9847    12.9830 H            1 WCX1280   0.0000
    43 H4         -26.9674    -2.5077    15.3401 H            1 WCX1280   0.0000
    44 H5         -26.2121    -3.2960    17.0452 H            1 WCX1280   0.0000
    45 H6         -24.9646    -7.0022    19.2115 H            1 WCX1280   0.0000
    46 H7         -25.9009    -2.0086    18.9404 H            1 WCX1280   0.0000
    47 H8         -27.1121    -0.8352    20.7482 H            1 WCX1280   0.0000
    48 H9         -29.1863    -3.6928    23.0040 H            1 WCX1280   0.0000
    49 H10        -31.0107    -2.6799    24.3423 H            1 WCX1280   0.0000
    50 H11        -30.8699    -1.9341    22.8964 H            1 WCX1280   0.0000
    51 H12        -31.0777    -0.3885    24.7683 H            1 WCX1280   0.0000
    52 H13        -29.7546    -0.1266    23.8477 H            1 WCX1280   0.0000
    53 H14        -28.4977     0.2132    27.2281 H            1 WCX1280   0.0000
    54 H15        -28.6336     1.0674    25.8430 H            1 WCX1280   0.0000
    55 H16        -29.9545     0.7837    26.7602 H            1 WCX1280   0.0000
    56 H17        -27.6190    -1.7338    26.3698 H            1 WCX1280   0.0000
    57 H18        -27.4736    -1.0875    24.8773 H            1 WCX1280   0.0000
    58 H19        -27.4377    -3.4634    24.6766 H            1 WCX1280   0.0000
    59 H20        -28.8539    -3.5777    25.4817 H            1 WCX1280   0.0000
    60 H21        -27.4554    -4.5254    22.8654 H            1 WCX1280   0.0000
    61 H22        -23.0088    -5.8862    18.3009 H            1 WCX1280   0.0000
    62 H23        -21.7888    -5.4046    16.1816 H            1 WCX1280   0.0000
    63 H24        -22.4063    -2.7340    12.1933 H            1 WCX1280   0.0000
    64 H25        -23.8452    -2.4609    13.1180 H            1 WCX1280   0.0000
    65 H26        -24.0171    -0.3373    15.4166 H            1 WCX1280   0.0000
    66 H27        -23.6301     1.4720    17.0359 H            1 WCX1280   0.0000
    67 H28        -25.4234     2.1444    18.6089 H            1 WCX1280   0.0000
    68 H29        -27.6504     1.0248    18.5340 H            1 WCX1280   0.0000
    69 H30        -29.8637    -1.4151    26.3263 H            1 WCX1280   0.0000
@<TRIPOS>BOND
     1    1    2       1
     2    2    3       1
     3    2   30       1
     4    3    4       1
     5    4    5      ar
     6    4   26      ar
     7    5    6      ar
     8    6    9       1
     9    6   24      ar
    10    7    8       2
    11    7   23       1
    12    8    9       1
    13    9   10       1
    14   10   11      ar
    15   10   23      ar
    16   11   12      ar
    17   12   13      ar
    18   13   14       1
    19   13   22      ar
    20   14   15       1
    21   15   16       1
    22   15   21       1
    23   16   17       1
    24   17   18       1
    25   18   19       1
    26   18   20       1
    27   20   21       1
    28   22   23      ar
    29   24   25      ar
    30   25   26      ar
    31   26   27       1
    32   27   28      am
    33   27   29       2
    34   30   31      ar
    35   30   35      ar
    36   31   32      ar
    37   32   33      ar
    38   33   34      ar
    39   34   35      ar
    40   35   36       1
    41   36   37       1
    42   36   38       1
    43   36   39       1
    44    1   40       1
    45    1   41       1
    46    1   42       1
    47    2   43       1
    48    5   44       1
    49    8   45       1
    50   11   46       1
    51   12   47       1
    52   15   48       1
    53   16   49       1
    54   16   50       1
    55   17   51       1
    56   17   52       1
    57   19   53       1
    58   19   54       1
    59   19   55       1
    60   20   56       1
    61   20   57       1
    62   21   58       1
    63   21   59       1
    64   22   60       1
    65   24   61       1
    66   25   62       1
    67   28   63       1
    68   28   64       1
    69   31   65       1
    70   32   66       1
    71   33   67       1
    72   34   68       1
    73   18   69       1
@<TRIPOS>SUBSTRUCTURE
     1 WCX1280     1 GROUP             4 A     WCX     0 **** WCX A1280
