@<TRIPOS>MOLECULE
4zqd_0X3_1_ligand
   27    29     1     0     0
SMALL
NO_CHARGES


@<TRIPOS>ATOM
     1 CL1       -184.4290   122.4840  -114.1920 Cl           1 0X3401   0.0000
     2 CAH       -185.1780   121.8780  -112.7380 C.ar         1 0X3401   0.0000
     3 CAG       -185.3030   120.5120  -112.5400 C.ar         1 0X3401   0.0000
     4 CAI       -185.6480   122.7640  -111.7800 C.ar         1 0X3401   0.0000
     5 CAQ       -186.2430   122.2820  -110.6250 C.ar         1 0X3401   0.0000
     6 FAR       -186.6970   123.1380  -109.7000 F            1 0X3401   0.0000
     7 CAP       -186.3690   120.9160  -110.4270 C.ar         1 0X3401   0.0000
     8 CAO       -185.8990   120.0320  -111.3840 C.ar         1 0X3401   0.0000
     9 NAN       -186.0270   118.6330  -111.1820 N.pl3        1 0X3401   0.0000
    10 CAM       -185.2080   117.7320  -111.9110 C.2          1 0X3401   0.0000
    11 CAL       -185.7750   116.9130  -112.9020 C.2          1 0X3401   0.0000
    12 NAT       -187.1660   116.9870  -113.1730 N.2          1 0X3401   1.0000
    13 OAS       -187.7400   118.1900  -113.4740 O.co2        1 0X3401   0.0000
    14 OAU       -187.8510   115.9750  -113.1370 O.co2        1 0X3401  -1.0000
    15 CAF       -183.8120   117.6590  -111.6380 C.2          1 0X3401   0.0000
    16 CAE       -183.0000   116.7670  -112.3600 C.2          1 0X3401   0.0000
    17 CAD       -183.5650   115.9480  -113.3510 C.2          1 0X3401   0.0000
    18 CAK       -184.9650   116.0220  -113.6240 C.2          1 0X3401   0.0000
    19 NAC       -183.0740   114.9790  -114.2330 N.2          1 0X3401   0.0000
    20 OAB       -184.0570   114.5120  -114.9640 O.2          1 0X3401   0.0000
    21 NAJ       -185.1900   115.0910  -114.6460 N.2          1 0X3401   0.0000
    22 HAG       -184.9636   119.8731  -113.2304 H            1 0X3401   0.0000
    23 HAI       -185.5576   123.7496  -111.9226 H            1 0X3401   0.0000
    24 HAP       -186.7990   120.5689  -109.5936 H            1 0X3401   0.0000
    25 HAN       -186.6947   118.2820  -110.5256 H            1 0X3401   0.0000
    26 HAF       -183.4094   118.2424  -110.9326 H            1 0X3401   0.0000
    27 HAE       -182.0200   116.7157  -112.1679 H            1 0X3401   0.0000
@<TRIPOS>BOND
     1    1    2       1
     2    2    3      ar
     3    2    4      ar
     4    3    8      ar
     5    4    5      ar
     6    5    6       1
     7    5    7      ar
     8    7    8      ar
     9    8    9       1
    10    9   10       1
    11   10   11       2
    12   10   15       1
    13   11   12       1
    14   11   18       1
    15   12   13      ar
    16   12   14      ar
    17   15   16       2
    18   16   17       1
    19   17   18       1
    20   17   19       2
    21   18   21       2
    22   19   20       1
    23   20   21       1
    24    3   22       1
    25    4   23       1
    26    7   24       1
    27    9   25       1
    28   15   26       1
    29   16   27       1
@<TRIPOS>SUBSTRUCTURE
     1 0X3401      1 GROUP             4 B     0X3     0 **** 0X3 B 401
