@<TRIPOS>MOLECULE
4bzq_ADP_2_ligand
   39    41     1     0     0
SMALL
NO_CHARGES


@<TRIPOS>ATOM
     1 PB          50.4740    10.7310   -16.4950 P.3          1 ADP1614   0.0000
     2 O1B         51.3440     9.4910   -16.5120 O.co2        1 ADP1614   0.0000
     3 O2B         49.1860    10.5530   -17.2340 O.co2        1 ADP1614  -1.0000
     4 O3B         50.3570    11.2230   -15.0920 O.co2        1 ADP1614  -1.0000
     5 PA          50.8340    12.7610   -18.3810 P.3          1 ADP1614   0.0000
     6 O1A         49.6100    13.4450   -17.8380 O.co2        1 ADP1614   0.0000
     7 O2A         50.7810    12.0030   -19.6550 O.co2        1 ADP1614  -1.0000
     8 O3A         51.4090    11.7740   -17.2470 O.3          1 ADP1614   0.0000
     9 O5'         51.9790    13.8500   -18.2890 O.3          1 ADP1614   0.0000
    10 C5'         53.2500    13.5740   -18.8370 C.3          1 ADP1614   0.0000
    11 C4'         53.9100    14.9000   -19.1280 C.3          1 ADP1614   0.0000
    12 O4'         55.2050    14.6960   -19.6630 O.3          1 ADP1614   0.0000
    13 C3'         53.1190    15.5670   -20.2340 C.3          1 ADP1614   0.0000
    14 O3'         53.1200    16.9830   -20.0990 O.3          1 ADP1614   0.0000
    15 C2'         53.8510    15.2430   -21.4850 C.3          1 ADP1614   0.0000
    16 O2'         53.7580    16.4220   -22.2540 O.3          1 ADP1614   0.0000
    17 C1'         55.2700    14.9410   -21.0530 C.3          1 ADP1614   0.0000
    18 N9          55.7570    13.7010   -21.7050 N.pl3        1 ADP1614   0.0000
    19 C8          55.2860    12.4550   -21.5220 C.2          1 ADP1614   0.0000
    20 N7          55.9650    11.5680   -22.2630 N.2          1 ADP1614   0.0000
    21 C5          56.8820    12.2350   -22.9490 C.ar         1 ADP1614   0.0000
    22 C6          57.9200    11.8940   -23.9300 C.ar         1 ADP1614   0.0000
    23 N6          58.0900    10.6210   -24.3100 N.pl3        1 ADP1614   0.0000
    24 N1          58.6740    12.8840   -24.4280 N.ar         1 ADP1614   0.0000
    25 C2          58.4870    14.1600   -24.0460 C.ar         1 ADP1614   0.0000
    26 N3          57.5570    14.5290   -23.1560 N.ar         1 ADP1614   0.0000
    27 C4          56.7400    13.6350   -22.5820 C.ar         1 ADP1614   0.0000
    28 H5'1        53.1517    13.0478   -19.6817 H            1 ADP1614   0.0000
    29 H5'2        53.7994    13.0544   -18.1827 H            1 ADP1614   0.0000
    30 H4'         53.9431    15.4745   -18.3102 H            1 ADP1614   0.0000
    31 H3'         52.1843    15.2131   -20.2665 H            1 ADP1614   0.0000
    32 H5          53.6502    17.2405   -19.2912 H            1 ADP1614   0.0000
    33 H2'         53.4393    14.4643   -21.9583 H            1 ADP1614   0.0000
    34 H7          53.2412    17.1112   -21.7462 H            1 ADP1614   0.0000
    35 H1'         55.8759    15.7112   -21.2522 H            1 ADP1614   0.0000
    36 H9          54.5283    12.2207   -20.9129 H            1 ADP1614   0.0000
    37 H10         58.7969    10.3888   -24.9781 H            1 ADP1614   0.0000
    38 H11         57.5100     9.9028   -23.9256 H            1 ADP1614   0.0000
    39 H12         59.0704    14.8670   -24.4458 H            1 ADP1614   0.0000
@<TRIPOS>BOND
     1    1    2      ar
     2    1    3      ar
     3    1    4      ar
     4    1    8       1
     5    5    6      ar
     6    5    7      ar
     7    5    8       1
     8    5    9       1
     9    9   10       1
    10   10   11       1
    11   11   12       1
    12   11   13       1
    13   12   17       1
    14   13   14       1
    15   13   15       1
    16   15   16       1
    17   15   17       1
    18   17   18       1
    19   18   19       1
    20   18   27       1
    21   19   20       2
    22   20   21       1
    23   21   22      ar
    24   21   27      ar
    25   22   23       1
    26   22   24      ar
    27   24   25      ar
    28   25   26      ar
    29   26   27      ar
    30   25   39       1
    31   23   38       1
    32   23   37       1
    33   10   28       1
    34   10   29       1
    35   11   30       1
    36   13   31       1
    37   14   32       1
    38   15   33       1
    39   16   34       1
    40   17   35       1
    41   19   36       1
@<TRIPOS>SUBSTRUCTURE
     1 ADP1614     1 GROUP             4 B     ADP     0 **** ADP B1614
