@<TRIPOS>MOLECULE
3pz3_PZ3_1_ligand
   93    99     1     0     0
SMALL
NO_CHARGES


@<TRIPOS>ATOM
     1 CAA          3.2570    17.8650    31.7160 C.3          1 PZ3333   0.0000
     2 CAB          3.6560    14.5290    26.3390 C.3          1 PZ3333   0.0000
     3 OAC          0.0430    26.7420    30.4040 O.2          1 PZ3333   0.0000
     4 OAD          7.7320    24.3480    19.7900 O.2          1 PZ3333   0.0000
     5 OAE          7.7820    20.9060    26.6340 O.2          1 PZ3333   0.0000
     6 OAF          6.5900    22.8510    27.5530 O.2          1 PZ3333   0.0000
     7 CAG         -0.4630    25.7680    30.9630 C.2          1 PZ3333   0.0000
     8 CAH          3.4970    27.7570    17.7680 C.ar         1 PZ3333   0.0000
     9 CAI          4.4340    28.7850    17.7460 C.ar         1 PZ3333   0.0000
    10 CAJ          3.9040    26.4580    18.0660 C.ar         1 PZ3333   0.0000
    11 CAK          5.7710    28.5140    18.0260 C.ar         1 PZ3333   0.0000
    12 CAL          5.2450    26.1850    18.3460 C.ar         1 PZ3333   0.0000
    13 CAM          5.4080    22.5310    22.8630 C.ar         1 PZ3333   0.0000
    14 CAN          7.6790    21.7410    23.1000 C.ar         1 PZ3333   0.0000
    15 CAO         -0.0280    23.3800    31.6990 C.2          1 PZ3333   0.0000
    16 CAP          5.8830    23.7660    22.4220 C.ar         1 PZ3333   0.0000
    17 CAQ          8.1580    22.9730    22.6590 C.ar         1 PZ3333   0.0000
    18 CAR          4.7120    20.1770    30.5910 C.ar         1 PZ3333   0.0000
    19 CAS          5.9000    18.2850    29.6830 C.ar         1 PZ3333   0.0000
    20 CAT          1.3890    20.2940    29.1410 C.ar         1 PZ3333   0.0000
    21 CAU          5.1360    20.9560    29.5160 C.ar         1 PZ3333   0.0000
    22 CAV          6.3170    19.0670    28.6020 C.ar         1 PZ3333   0.0000
    23 CAW          0.5260    22.2760    31.1950 C.2          1 PZ3333   0.0000
    24 CAX          2.0350    19.4190    28.2680 C.ar         1 PZ3333   0.0000
    25 CAY          1.4360    17.2540    25.6690 C.2          1 PZ3333   0.0000
    26 CAZ          1.4660    15.1260    25.3130 C.2          1 PZ3333   0.0000
    27 CBA          2.4850    22.1670    28.1030 C.ar         1 PZ3333   0.0000
    28 CBB          7.6460    26.9150    18.6340 C.3          1 PZ3333   0.0000
    29 CBC          5.7990    20.1460    23.6970 C.3          1 PZ3333   0.0000
    30 CBD          3.6610    17.6150    26.8860 C.3          1 PZ3333   0.0000
    31 CBE          4.0540    22.0430    26.2420 C.3          1 PZ3333   0.0000
    32 CBF          3.9230    19.4070    25.1600 C.3          1 PZ3333   0.0000
    33 NBG          0.7550    16.2390    25.1430 N.2          1 PZ3333   0.0000
    34 NBH          7.6990    26.5860    20.0630 N.am         1 PZ3333   0.0000
    35 OBI          4.6820    18.0770    31.7370 O.3          1 PZ3333   0.0000
    36 OBJ          7.7440    25.1900    21.8820 O.3          1 PZ3333   0.0000
    37 OBK          0.6700    23.8380    29.6630 O.2          1 PZ3333   0.0000
    38 CBL          7.7220    25.3390    20.5240 C.2          1 PZ3333   0.0000
    39 CBM          6.1810    27.2160    18.3190 C.ar         1 PZ3333   0.0000
    40 CBN          6.3060    21.5210    23.2090 C.ar         1 PZ3333   0.0000
    41 CBO          0.0590    24.3340    30.7770 C.2          1 PZ3333   0.0000
    42 CBP          5.0930    18.8370    30.6790 C.ar         1 PZ3333   0.0000
    43 CBQ          7.2600    23.9870    22.3170 C.ar         1 PZ3333   0.0000
    44 CBR          1.6030    21.6690    29.0650 C.ar         1 PZ3333   0.0000
    45 CBS          5.9350    20.4090    28.5110 C.ar         1 PZ3333   0.0000
    46 CBT          3.1380    21.2980    27.2310 C.ar         1 PZ3333   0.0000
    47 CBU          2.5750    16.7850    26.1790 C.2          1 PZ3333   0.0000
    48 CBV          0.9540    22.5320    29.9550 C.2          1 PZ3333   0.0000
    49 CBW          2.9230    19.9290    27.3130 C.ar         1 PZ3333   0.0000
    50 CBX          5.3020    20.0590    25.1880 C.3          1 PZ3333   0.0000
    51 NBY          3.4890    19.0290    26.5050 N.pl3        1 PZ3333   0.0000
    52 NBZ          5.3450    21.3800    25.8750 N.3          1 PZ3333   0.0000
    53 NCA          2.5770    15.4750    25.9490 N.pl3        1 PZ3333   0.0000
    54 SCB          6.4530    21.4110    27.1380 S.o2         1 PZ3333   0.0000
    55 HAA1         2.9914    17.3067    32.5020 H            1 PZ3333   0.0000
    56 HAA2         2.7881    18.7471    31.7601 H            1 PZ3333   0.0000
    57 HAA3         3.0025    17.3940    30.8714 H            1 PZ3333   0.0000
    58 HAB1         4.3858    15.0294    26.8048 H            1 PZ3333   0.0000
    59 HAB2         3.2836    13.8337    26.9538 H            1 PZ3333   0.0000
    60 HAB3         4.0242    14.0877    25.5207 H            1 PZ3333   0.0000
    61 HAG         -1.2480    25.9166    31.5644 H            1 PZ3333   0.0000
    62 HAH          2.5357    27.9494    17.5708 H            1 PZ3333   0.0000
    63 HAI          4.1476    29.7183    17.5292 H            1 PZ3333   0.0000
    64 HAJ          3.2324    25.7172    18.0795 H            1 PZ3333   0.0000
    65 HAK          6.4409    29.2564    18.0166 H            1 PZ3333   0.0000
    66 HAL          5.5320    25.2525    18.5651 H            1 PZ3333   0.0000
    67 HAM          4.4235    22.3695    22.9312 H            1 PZ3333   0.0000
    68 HAN          8.3213    21.0127    23.3389 H            1 PZ3333   0.0000
    69 HAO         -0.4356    23.4733    32.6074 H            1 PZ3333   0.0000
    70 HAP          5.2396    24.4927    22.1811 H            1 PZ3333   0.0000
    71 HAQ          9.1428    23.1310    22.5875 H            1 PZ3333   0.0000
    72 HAR          4.1336    20.5789    31.3009 H            1 PZ3333   0.0000
    73 HAS          6.1808    17.3271    29.7429 H            1 PZ3333   0.0000
    74 HAT          0.7636    19.9297    29.8310 H            1 PZ3333   0.0000
    75 HAU          4.8648    21.9171    29.4642 H            1 PZ3333   0.0000
    76 HAV          6.8918    18.6644    27.8896 H            1 PZ3333   0.0000
    77 HAW          0.6078    21.3989    31.6683 H            1 PZ3333   0.0000
    78 HAX          1.8653    18.4351    28.3236 H            1 PZ3333   0.0000
    79 HAY          1.1422    18.2098    25.6799 H            1 PZ3333   0.0000
    80 HAZ          1.2117    14.2049    25.0182 H            1 PZ3333   0.0000
    81 HBA          2.6485    23.1515    28.0398 H            1 PZ3333   0.0000
    82 HBB1         7.9658    26.1406    18.0880 H            1 PZ3333   0.0000
    83 HBB2         8.2134    27.7156    18.4414 H            1 PZ3333   0.0000
    84 HBC1         6.5480    19.4922    23.5895 H            1 PZ3333   0.0000
    85 HBC2         5.0362    19.8788    23.1081 H            1 PZ3333   0.0000
    86 HBD1         4.5661    17.2970    26.6038 H            1 PZ3333   0.0000
    87 HBD2         3.5679    17.5187    27.8770 H            1 PZ3333   0.0000
    88 HBE1         4.2756    22.9302    26.6467 H            1 PZ3333   0.0000
    89 HBE2         3.5361    22.1816    25.3979 H            1 PZ3333   0.0000
    90 HBF1         3.9610    18.5881    24.5873 H            1 PZ3333   0.0000
    91 HBF2         3.2645    20.0532    24.7743 H            1 PZ3333   0.0000
    92 HBH          7.7188    27.3370    20.7230 H            1 PZ3333   0.0000
    93 HBX          5.9188    19.4426    25.6776 H            1 PZ3333   0.0000
@<TRIPOS>BOND
     1    1   35       1
     2    2   53       1
     3    3    7       2
     4    4   38       2
     5    5   54       2
     6    6   54       2
     7    7   41       1
     8    8    9      ar
     9    8   10      ar
    10    9   11      ar
    11   10   12      ar
    12   11   39      ar
    13   12   39      ar
    14   13   16      ar
    15   13   40      ar
    16   14   17      ar
    17   14   40      ar
    18   15   23       1
    19   15   41       2
    20   16   43      ar
    21   17   43      ar
    22   18   21      ar
    23   18   42      ar
    24   19   22      ar
    25   19   42      ar
    26   20   24      ar
    27   20   44      ar
    28   21   45      ar
    29   22   45      ar
    30   23   48       2
    31   24   49      ar
    32   25   33       1
    33   25   47       2
    34   26   33       2
    35   26   53       1
    36   27   44      ar
    37   27   46      ar
    38   28   34       1
    39   28   39       1
    40   29   40       1
    41   29   50       1
    42   30   47       1
    43   30   51       1
    44   31   46       1
    45   31   52       1
    46   32   50       1
    47   32   51       1
    48   34   38      am
    49   35   42       1
    50   36   38       1
    51   36   43       1
    52   37   41       1
    53   37   48       1
    54   44   48       1
    55   45   54       1
    56   46   49      ar
    57   47   53       1
    58   49   51       1
    59   50   52       1
    60   52   54       1
    61    1   55       1
    62    1   56       1
    63    1   57       1
    64    2   58       1
    65    2   59       1
    66    2   60       1
    67    7   61       1
    68    8   62       1
    69    9   63       1
    70   10   64       1
    71   11   65       1
    72   12   66       1
    73   13   67       1
    74   14   68       1
    75   15   69       1
    76   16   70       1
    77   17   71       1
    78   18   72       1
    79   19   73       1
    80   20   74       1
    81   21   75       1
    82   22   76       1
    83   23   77       1
    84   24   78       1
    85   25   79       1
    86   26   80       1
    87   27   81       1
    88   28   82       1
    89   28   83       1
    90   29   84       1
    91   29   85       1
    92   30   86       1
    93   30   87       1
    94   31   88       1
    95   31   89       1
    96   32   90       1
    97   32   91       1
    98   34   92       1
    99   50   93       1
@<TRIPOS>SUBSTRUCTURE
     1 PZ3333      1 GROUP             4 B     PZ3     0 **** PZ3 B 333
