@<TRIPOS>MOLECULE
3r5y_F42_2_ligand
   85    87     1     0     0
SMALL
NO_CHARGES


@<TRIPOS>ATOM
     1 N1           3.1490    10.6910     3.1440 N.2          1 F42147   0.0000
     2 C2           3.2050    11.5990     4.1430 C.2          1 F42147   0.0000
     3 O2           4.0030    12.5450     4.0030 O.2          1 F42147   0.0000
     4 N3           2.4130    11.5330     5.2330 N.pl3        1 F42147   0.0000
     5 C4           1.5340    10.5330     5.4360 C.2          1 F42147   0.0000
     6 O4           0.7930    10.4630     6.4480 O.2          1 F42147   0.0000
     7 C4A          1.4320     9.4890     4.4010 C.2          1 F42147   0.0000
     8 C5           0.5620     8.4160     4.4920 C.2          1 F42147   0.0000
     9 C5A          0.5340     7.4880     3.4500 C.ar         1 F42147   0.0000
    10 C6          -0.3430     6.4100     3.5230 C.ar         1 F42147   0.0000
    11 C7          -0.4100     5.4750     2.4990 C.ar         1 F42147   0.0000
    12 C8           0.4080     5.6500     1.3930 C.ar         1 F42147   0.0000
    13 O8M          0.3640     4.7650     0.3700 O.3          1 F42147   0.0000
    14 C9           1.2840     6.7220     1.3070 C.ar         1 F42147   0.0000
    15 C9A          1.3510     7.6390     2.3290 C.ar         1 F42147   0.0000
    16 N10          2.2480     8.7060     2.2150 N.pl3        1 F42147   0.0000
    17 C10          2.3040     9.6490     3.2270 C.2          1 F42147   0.0000
    18 C1'          3.1380     8.8780     1.0620 C.3          1 F42147   0.0000
    19 C2'          2.5170    10.0110     0.2610 C.3          1 F42147   0.0000
    20 O2'          1.3020     9.5290    -0.3240 O.3          1 F42147   0.0000
    21 C3'          3.4700    10.5450    -0.8160 C.3          1 F42147   0.0000
    22 O3'          3.8150     9.4820    -1.7170 O.3          1 F42147   0.0000
    23 C4'          4.7380    11.1290    -0.2040 C.3          1 F42147   0.0000
    24 O4'          4.4040    12.0330     0.8570 O.3          1 F42147   0.0000
    25 C5'          5.5420    11.9300    -1.2220 C.3          1 F42147   0.0000
    26 O5'          4.6470    12.8510    -1.8460 O.3          1 F42147   0.0000
    27 P            5.1660    13.7080    -3.1240 P.3          1 F42147   0.0000
    28 O1P          4.2230    14.8500    -3.3230 O.co2        1 F42147   0.0000
    29 O2P          6.6560    14.2170    -2.8330 O.co2        1 F42147  -1.0000
    30 O3P          5.0960    12.6290    -4.3160 O.3          1 F42147   0.0000
    31 C1I          6.1780    12.5170    -5.2340 C.3          1 F42147   0.0000
    32 C2I          6.7260    11.0940    -5.2800 C.3          1 F42147   0.0000
    33 C3I          5.6610    12.9000    -6.5810 C.2          1 F42147   0.0000
    34 O3I          4.5550    12.5450    -6.9540 O.2          1 F42147   0.0000
    35 N1H          6.4830    13.6430    -7.3140 N.am         1 F42147   0.0000
    36 C1H          6.0940    14.1220    -8.6210 C.3          1 F42147   0.0000
    37 C2H          7.1460    13.7790    -9.6360 C.2          1 F42147   0.0000
    38 O2U          6.8210    13.7260   -10.9160 O.co2        1 F42147   0.0000
    39 O2T          8.2980    13.5590    -9.2920 O.co2        1 F42147  -1.0000
    40 C3H          5.8810    15.6360    -8.5690 C.3          1 F42147   0.0000
    41 C4H          4.6390    15.9570    -7.7450 C.3          1 F42147   0.0000
    42 C5H          4.3660    17.4440    -7.6100 C.2          1 F42147   0.0000
    43 O5H          3.4900    17.8210    -6.8480 O.2          1 F42147   0.0000
    44 N1G          5.0950    18.3060    -8.3160 N.am         1 F42147   0.0000
    45 C1G          4.8250    19.7280    -8.2000 C.3          1 F42147   0.0000
    46 C2G          4.1300    20.1910    -9.4590 C.2          1 F42147   0.0000
    47 O2V          4.2050    21.4600    -9.8500 O.co2        1 F42147   0.0000
    48 O2W          3.4930    19.4060   -10.1580 O.co2        1 F42147  -1.0000
    49 C3G          6.1080    20.5310    -7.9220 C.3          1 F42147   0.0000
    50 C4G          6.7470    20.1730    -6.5690 C.3          1 F42147   0.0000
    51 C5G          7.8970    21.0890    -6.1960 C.2          1 F42147   0.0000
    52 O6G          7.9190    22.3540    -6.5770 O.co2        1 F42147   0.0000
    53 O7G          8.8480    20.7070    -5.5210 O.co2        1 F42147  -1.0000
    54 H1           2.4814    12.2571     5.9193 H            1 F42147   0.0000
    55 H2          -0.0339     8.3081     5.2878 H            1 F42147   0.0000
    56 H3          -0.9329     6.3075     4.3239 H            1 F42147   0.0000
    57 H4          -1.0327     4.6947     2.5575 H            1 F42147   0.0000
    58 H8M         -0.2589     3.9838     0.4111 H            1 F42147   0.0000
    59 H6           1.8669     6.8278     0.5014 H            1 F42147   0.0000
    60 H1'1         3.1754     8.0402     0.5173 H            1 F42147   0.0000
    61 H1'2         4.0603     9.1222     1.3617 H            1 F42147   0.0000
    62 H2'          2.2940    10.7581     0.8871 H            1 F42147   0.0000
    63 H10          0.5412     9.6947     0.3035 H            1 F42147   0.0000
    64 H3'          3.0021    11.2631    -1.3311 H            1 F42147   0.0000
    65 H12          3.5265     9.7235    -2.6435 H            1 F42147   0.0000
    66 H4'          5.3041    10.3879     0.1571 H            1 F42147   0.0000
    67 H14          3.8946    11.5430     1.5644 H            1 F42147   0.0000
    68 H5'1         5.9331    11.3161    -1.9076 H            1 F42147   0.0000
    69 H5'2         6.2774    12.4272    -0.7615 H            1 F42147   0.0000
    70 H1I          6.9078    13.1461    -4.9665 H            1 F42147   0.0000
    71 H2I1         7.4827    11.0491    -5.9322 H            1 F42147   0.0000
    72 H2I2         7.0530    10.8332    -4.3717 H            1 F42147   0.0000
    73 H2I3         6.0016    10.4669    -5.5662 H            1 F42147   0.0000
    74 H1H          7.3871    13.8750    -6.9550 H            1 F42147   0.0000
    75 H22          5.2349    13.6831    -8.8842 H            1 F42147   0.0000
    76 H3H1         5.7622    15.9863    -9.4981 H            1 F42147   0.0000
    77 H3H2         6.6786    16.0689    -8.1490 H            1 F42147   0.0000
    78 H4H1         4.7594    15.5734    -6.8294 H            1 F42147   0.0000
    79 H4H2         3.8490    15.5293    -8.1844 H            1 F42147   0.0000
    80 H1G          5.8211    17.9774    -8.9200 H            1 F42147   0.0000
    81 H28          4.1999    19.8643    -7.4314 H            1 F42147   0.0000
    82 H3G1         5.8827    21.5053    -7.9222 H            1 F42147   0.0000
    83 H3G2         6.7685    20.3414    -8.6485 H            1 F42147   0.0000
    84 H4G1         7.0895    19.2347    -6.6166 H            1 F42147   0.0000
    85 H4G2         6.0459    20.2363    -5.8588 H            1 F42147   0.0000
@<TRIPOS>BOND
     1    1    2       1
     2    1   17       2
     3    2    3       2
     4    2    4       1
     5    4    5       1
     6    5    6       2
     7    5    7       1
     8    7    8       2
     9    7   17       1
    10    8    9       1
    11    9   10      ar
    12    9   15      ar
    13   10   11      ar
    14   11   12      ar
    15   12   13       1
    16   12   14      ar
    17   14   15      ar
    18   15   16       1
    19   16   17       1
    20   16   18       1
    21   18   19       1
    22   19   20       1
    23   19   21       1
    24   21   22       1
    25   21   23       1
    26   23   24       1
    27   23   25       1
    28   25   26       1
    29   26   27       1
    30   27   28      ar
    31   27   29      ar
    32   27   30       1
    33   30   31       1
    34   31   32       1
    35   31   33       1
    36   33   34       2
    37   33   35      am
    38   35   36       1
    39   36   37       1
    40   36   40       1
    41   37   38      ar
    42   37   39      ar
    43   40   41       1
    44   41   42       1
    45   42   43       2
    46   42   44      am
    47   44   45       1
    48   45   46       1
    49   45   49       1
    50   46   47      ar
    51   46   48      ar
    52   49   50       1
    53   50   51       1
    54   51   52      ar
    55   51   53      ar
    56    4   54       1
    57    8   55       1
    58   10   56       1
    59   11   57       1
    60   13   58       1
    61   14   59       1
    62   18   60       1
    63   18   61       1
    64   19   62       1
    65   20   63       1
    66   21   64       1
    67   22   65       1
    68   23   66       1
    69   24   67       1
    70   25   68       1
    71   25   69       1
    72   49   83       1
    73   31   70       1
    74   32   71       1
    75   32   72       1
    76   32   73       1
    77   35   74       1
    78   36   75       1
    79   50   85       1
    80   40   76       1
    81   40   77       1
    82   41   78       1
    83   41   79       1
    84   44   80       1
    85   45   81       1
    86   50   84       1
    87   49   82       1
@<TRIPOS>SUBSTRUCTURE
     1 F42147      1 GROUP             4 B     F42     0 **** F42 B 147
