@<TRIPOS>MOLECULE
2abj_PLP_5_ligand
   26    26     1     0     0
SMALL
NO_CHARGES


@<TRIPOS>ATOM
     1 N1          70.6180    50.0770    86.9950 N.ar         1 PLP420   1.0000
     2 C2          71.7340    50.4650    87.7280 C.ar         1 PLP420   0.0000
     3 C2A         72.1940    49.7070    88.9460 C.3          1 PLP420   0.0000
     4 C3          72.4500    51.5750    87.3350 C.ar         1 PLP420   0.0000
     5 O3          73.4450    52.0490    88.1460 O.3          1 PLP420   0.0000
     6 C4          72.0570    52.3050    86.2210 C.ar         1 PLP420   0.0000
     7 C4A         72.5070    53.7340    86.1610 C.3          1 PLP420   0.0000
     8 C5          70.9380    51.9190    85.4780 C.ar         1 PLP420   0.0000
     9 C6          70.2170    50.7930    85.8760 C.ar         1 PLP420   0.0000
    10 C5A         70.6450    52.5940    84.1530 C.3          1 PLP420   0.0000
    11 O4P         70.3200    53.9550    84.3710 O.3          1 PLP420   0.0000
    12 P           70.1850    55.0130    83.1590 P.3          1 PLP420   0.0000
    13 O1P         69.1010    54.5640    82.2120 O.co2        1 PLP420   0.0000
    14 O2P         71.4940    55.0850    82.4240 O.co2        1 PLP420  -1.0000
    15 O3P         69.8560    56.3690    83.7250 O.co2        1 PLP420  -1.0000
    16 H2A1        73.0084    50.1469    89.3245 H            1 PLP420   0.0000
    17 H2A2        71.4666    49.7056    89.6322 H            1 PLP420   0.0000
    18 H2A3        72.4124    48.7654    88.6898 H            1 PLP420   0.0000
    19 H4          73.6450    51.5908    89.0120 H            1 PLP420   0.0000
    20 H4A1        72.1667    54.1556    85.3205 H            1 PLP420   0.0000
    21 H4A2        72.1481    54.2300    86.9517 H            1 PLP420   0.0000
    22 H4A3        73.5063    53.7695    86.1708 H            1 PLP420   0.0000
    23 H8          69.4135    50.5026    85.3564 H            1 PLP420   0.0000
    24 H5A1        69.8748    52.1354    83.7097 H            1 PLP420   0.0000
    25 H5A2        71.4515    52.5351    83.5647 H            1 PLP420   0.0000
    26 H11         70.0975    49.2714    87.2779 H            1 PLP420   0.0000
@<TRIPOS>BOND
     1    1    2      ar
     2    1    9      ar
     3    2    3       1
     4    2    4      ar
     5    4    5       1
     6    4    6      ar
     7    6    7       1
     8    6    8      ar
     9    8    9      ar
    10    8   10       1
    11   10   11       1
    12   11   12       1
    13   12   13      ar
    14   12   14      ar
    15   12   15      ar
    16    3   16       1
    17    3   17       1
    18    3   18       1
    19    5   19       1
    20    7   20       1
    21    7   21       1
    22    7   22       1
    23    9   23       1
    24   10   24       1
    25   10   25       1
    26    1   26       1
@<TRIPOS>SUBSTRUCTURE
     1 PLP420      1 GROUP             4 G     PLP     0 **** PLP G 420
