@<TRIPOS>MOLECULE
3cr7_PPS_1_ligand
   42    44     1     0     0
SMALL
NO_CHARGES


@<TRIPOS>ATOM
     1 S2          27.4300    61.7670    61.7900 S.o2         1 PPS2002   0.0000
     2 OS1         26.6150    62.0170    60.3550 O.co2        1 PPS2002   0.0000
     3 OS2         28.3630    60.3740    61.6930 O.co2        1 PPS2002   0.0000
     4 OS3         28.4090    63.0970    62.1370 O.co2        1 PPS2002  -1.0000
     5 O6P         26.3110    61.5940    63.0210 O.3          1 PPS2002   0.0000
     6 P2          24.6910    61.3630    62.7010 P.3          1 PPS2002   0.0000
     7 O4P         24.4290    59.8540    62.0500 O.co2        1 PPS2002   0.0000
     8 O5P         24.1930    62.3930    61.7460 O.co2        1 PPS2002  -1.0000
     9 O5'         23.9240    61.5060    64.1770 O.3          1 PPS2002   0.0000
    10 C5'         23.7530    62.7990    64.7570 C.3          1 PPS2002   0.0000
    11 C4'         22.6660    62.6290    65.8570 C.3          1 PPS2002   0.0000
    12 O4'         23.1350    61.5910    66.7780 O.3          1 PPS2002   0.0000
    13 C1'         23.0000    62.1110    68.1410 C.3          1 PPS2002   0.0000
    14 N9          24.2910    61.9210    68.8310 N.pl3        1 PPS2002   0.0000
    15 C4          25.5670    62.6700    68.5690 C.ar         1 PPS2002   0.0000
    16 N3          25.9580    63.8320    67.6730 N.ar         1 PPS2002   0.0000
    17 C2          27.4320    64.3690    67.6720 C.ar         1 PPS2002   0.0000
    18 N1          28.4700    63.7370    68.5630 N.ar         1 PPS2002   0.0000
    19 C6          28.0680    62.5750    69.4580 C.ar         1 PPS2002   0.0000
    20 N6          29.0540    61.9280    70.3170 N.pl3        1 PPS2002   0.0000
    21 C5          26.6200    62.0350    69.4680 C.ar         1 PPS2002   0.0000
    22 N7          25.9910    60.9140    70.2530 N.2          1 PPS2002   0.0000
    23 C8          24.5490    60.8290    69.8680 C.2          1 PPS2002   0.0000
    24 C2'         22.5130    63.5580    68.1070 C.3          1 PPS2002   0.0000
    25 O2'         21.2300    63.5990    68.6850 O.3          1 PPS2002   0.0000
    26 C3'         22.4070    63.9140    66.6440 C.3          1 PPS2002   0.0000
    27 O3'         21.0930    64.4160    66.3630 O.3          1 PPS2002   0.0000
    28 P1          19.6890    63.4750    66.3720 P.3          1 PPS2002   0.0000
    29 O1P         18.6440    64.1710    65.2570 O.co2        1 PPS2002   0.0000
    30 O2P         18.9640    63.5670    67.8850 O.co2        1 PPS2002  -1.0000
    31 O3P         19.9080    62.0610    66.0240 O.co2        1 PPS2002  -1.0000
    32 H5'1        23.4489    63.4537    64.0650 H            1 PPS2002   0.0000
    33 H5'2        24.6111    63.1157    65.1612 H            1 PPS2002   0.0000
    34 H4'         21.8128    62.3280    65.4310 H            1 PPS2002   0.0000
    35 H1'         22.3111    61.5629    68.6153 H            1 PPS2002   0.0000
    36 H5          27.6836    65.1332    67.0781 H            1 PPS2002   0.0000
    37 H6          28.7824    61.1645    70.9029 H            1 PPS2002   0.0000
    38 H7          30.0014    62.2481    70.3199 H            1 PPS2002   0.0000
    39 H8          23.8779    60.1783    70.2232 H            1 PPS2002   0.0000
    40 H2'         23.1468    64.1665    68.5845 H            1 PPS2002   0.0000
    41 H10         20.5399    63.4588    67.9750 H            1 PPS2002   0.0000
    42 H3'         23.0932    64.6025    66.4093 H            1 PPS2002   0.0000
@<TRIPOS>BOND
     1    1    2      ar
     2    1    3      ar
     3    1    4      ar
     4    1    5       1
     5    5    6       1
     6    6    7      ar
     7    6    8      ar
     8    6    9       1
     9    9   10       1
    10   10   11       1
    11   11   12       1
    12   11   26       1
    13   12   13       1
    14   13   14       1
    15   13   24       1
    16   14   15       1
    17   14   23       1
    18   15   16      ar
    19   15   21      ar
    20   16   17      ar
    21   17   18      ar
    22   18   19      ar
    23   19   20       1
    24   19   21      ar
    25   21   22       1
    26   22   23       2
    27   24   25       1
    28   24   26       1
    29   26   27       1
    30   27   28       1
    31   28   29      ar
    32   28   30      ar
    33   28   31      ar
    34   25   41       1
    35   26   42       1
    36   10   32       1
    37   10   33       1
    38   11   34       1
    39   13   35       1
    40   17   36       1
    41   20   37       1
    42   20   38       1
    43   23   39       1
    44   24   40       1
@<TRIPOS>SUBSTRUCTURE
     1 PPS2002     1 GROUP             4 A     PPS     0 **** PPS A2002
