@<TRIPOS>MOLECULE
1g6o_ADP_2_ligand
   39    41     1     0     0
SMALL
NO_CHARGES


@<TRIPOS>ATOM
     1 PB         -11.0790    29.0670    22.6350 P.3          1 ADP402   0.0000
     2 O1B        -10.9820    29.6240    21.2780 O.co2        1 ADP402   0.0000
     3 O2B        -12.2330    29.8260    23.4510 O.co2        1 ADP402  -1.0000
     4 O3B         -9.7550    29.2020    23.3540 O.co2        1 ADP402  -1.0000
     5 PA         -11.0640    26.1400    23.0890 P.3          1 ADP402   0.0000
     6 O1A        -10.8950    26.2340    24.5560 O.co2        1 ADP402   0.0000
     7 O2A         -9.7950    25.7400    22.4400 O.co2        1 ADP402  -1.0000
     8 O3A        -11.5800    27.5740    22.5680 O.3          1 ADP402   0.0000
     9 O5'        -12.2720    25.1270    22.6960 O.3          1 ADP402   0.0000
    10 C5'        -13.6120    25.1620    23.2990 C.3          1 ADP402   0.0000
    11 C4'        -14.1830    23.7280    23.5280 C.3          1 ADP402   0.0000
    12 O4'        -14.4400    23.0630    22.2730 O.3          1 ADP402   0.0000
    13 C3'        -13.2540    22.8340    24.3140 C.3          1 ADP402   0.0000
    14 O3'        -13.9170    22.2450    25.4300 O.3          1 ADP402   0.0000
    15 C2'        -12.7220    21.7900    23.3480 C.3          1 ADP402   0.0000
    16 O2'        -12.5220    20.5190    23.9840 O.3          1 ADP402   0.0000
    17 C1'        -13.7280    21.7950    22.1760 C.3          1 ADP402   0.0000
    18 N9         -13.0830    21.7290    20.7700 N.pl3        1 ADP402   0.0000
    19 C8         -12.1430    22.5680    20.2900 C.2          1 ADP402   0.0000
    20 N7         -11.8130    22.2490    19.0470 N.2          1 ADP402   0.0000
    21 C5         -12.5040    21.2340    18.6950 C.ar         1 ADP402   0.0000
    22 C6         -12.6020    20.4530    17.5140 C.ar         1 ADP402   0.0000
    23 N6         -11.8380    20.7580    16.4340 N.pl3        1 ADP402   0.0000
    24 N1         -13.4970    19.3710    17.4690 N.ar         1 ADP402   0.0000
    25 C2         -14.2920    19.0470    18.5710 C.ar         1 ADP402   0.0000
    26 N3         -14.1930    19.8140    19.7260 N.ar         1 ADP402   0.0000
    27 C4         -13.3410    20.8780    19.8220 C.ar         1 ADP402   0.0000
    28 H5'1       -14.2278    25.6620    22.6901 H            1 ADP402   0.0000
    29 H5'2       -13.5584    25.6333    24.1793 H            1 ADP402   0.0000
    30 H4'        -15.0456    23.8064    24.0277 H            1 ADP402   0.0000
    31 H3'        -12.4875    23.3822    24.6485 H            1 ADP402   0.0000
    32 H5         -14.6353    22.8607    25.7539 H            1 ADP402   0.0000
    33 H2'        -11.8391    22.1073    23.0018 H            1 ADP402   0.0000
    34 H7         -12.6545    19.7872    23.3155 H            1 ADP402   0.0000
    35 H1'        -14.3733    21.0389    22.2847 H            1 ADP402   0.0000
    36 H9         -11.7476    23.3295    20.8036 H            1 ADP402   0.0000
    37 H10        -11.9066    20.2081    15.6016 H            1 ADP402   0.0000
    38 H11        -11.2066    21.5326    16.4709 H            1 ADP402   0.0000
    39 H12        -14.9242    18.2733    18.5295 H            1 ADP402   0.0000
@<TRIPOS>BOND
     1    1    2      ar
     2    1    3      ar
     3    1    4      ar
     4    1    8       1
     5    5    6      ar
     6    5    7      ar
     7    5    8       1
     8    5    9       1
     9    9   10       1
    10   10   11       1
    11   11   12       1
    12   11   13       1
    13   12   17       1
    14   13   14       1
    15   13   15       1
    16   15   16       1
    17   15   17       1
    18   17   18       1
    19   18   19       1
    20   18   27       1
    21   19   20       2
    22   20   21       1
    23   21   22      ar
    24   21   27      ar
    25   22   23       1
    26   22   24      ar
    27   24   25      ar
    28   25   26      ar
    29   26   27      ar
    30   25   39       1
    31   23   38       1
    32   23   37       1
    33   10   28       1
    34   10   29       1
    35   11   30       1
    36   13   31       1
    37   14   32       1
    38   15   33       1
    39   16   34       1
    40   17   35       1
    41   19   36       1
@<TRIPOS>SUBSTRUCTURE
     1 ADP402      1 GROUP             4 B     ADP     0 **** ADP B 402
