@<TRIPOS>MOLECULE
4azh_LOG_2_ligand
   30    30     1     0     0
SMALL
NO_CHARGES


@<TRIPOS>ATOM
     1 C2         -43.2930   -36.5290    -9.8560 C.3          1 LOG2042   0.0000
     2 C3         -42.5750   -36.6820   -11.1990 C.3          1 LOG2042   0.0000
     3 C4         -43.5420   -36.4880   -12.3220 C.3          1 LOG2042   0.0000
     4 C5         -44.0610   -35.0800   -12.1950 C.3          1 LOG2042   0.0000
     5 C6         -44.9020   -34.7010   -13.4200 C.3          1 LOG2042   0.0000
     6 C7         -41.8680   -34.7760    -8.8110 C.2          1 LOG2042   0.0000
     7 C8         -40.8220   -34.4920    -7.7090 C.3          1 LOG2042   0.0000
     8 N2         -42.3120   -36.0550    -8.8510 N.am         1 LOG2042   0.0000
     9 O1         -46.2000   -34.6290    -8.9250 O.3          1 LOG2042   0.0000
    10 O3         -41.9540   -38.0120   -11.2960 O.3          1 LOG2042   0.0000
    11 O4         -42.8550   -36.6330   -13.5490 O.3          1 LOG2042   0.0000
    12 O5         -44.8930   -35.0130   -11.0370 O.3          1 LOG2042   0.0000
    13 O6         -46.1760   -35.3450   -13.3620 O.3          1 LOG2042   0.0000
    14 C1         -44.4220   -35.6620    -9.9010 C.2          1 LOG2042   0.0000
    15 O7         -42.2370   -33.8760    -9.5760 O.2          1 LOG2042   0.0000
    16 N1         -45.0560   -35.4850    -8.7800 N.2          1 LOG2042   0.0000
    17 H1         -43.6111   -37.4337    -9.5725 H            1 LOG2042   0.0000
    18 H2         -41.8600   -35.9859   -11.2643 H            1 LOG2042   0.0000
    19 H3         -44.2918   -37.1466   -12.2585 H            1 LOG2042   0.0000
    20 H4         -43.2954   -34.4439   -12.0995 H            1 LOG2042   0.0000
    21 H5         -44.4243   -34.9880   -14.2503 H            1 LOG2042   0.0000
    22 H6         -45.0333   -33.7098   -13.4367 H            1 LOG2042   0.0000
    23 H7         -40.5487   -33.5309    -7.7486 H            1 LOG2042   0.0000
    24 H8         -41.2200   -34.6888    -6.8130 H            1 LOG2042   0.0000
    25 H9         -40.0206   -35.0726    -7.8525 H            1 LOG2042   0.0000
    26 H10        -41.9642   -36.7053    -8.1757 H            1 LOG2042   0.0000
    27 H11        -46.4268   -34.2449    -9.8200 H            1 LOG2042   0.0000
    28 H12        -41.0226   -37.9722   -10.9341 H            1 LOG2042   0.0000
    29 H13        -43.4821   -36.9882   -14.2422 H            1 LOG2042   0.0000
    30 H14        -46.1216   -36.2332   -13.8182 H            1 LOG2042   0.0000
@<TRIPOS>BOND
     1    1    2       1
     2    1    8       1
     3    1   14       1
     4    2    3       1
     5    2   10       1
     6    3    4       1
     7    3   11       1
     8    4    5       1
     9    4   12       1
    10    5   13       1
    11    6    7       1
    12    6    8      am
    13    6   15       2
    14    9   16       1
    15   12   14       1
    16   14   16       2
    17    1   17       1
    18    2   18       1
    19    3   19       1
    20    4   20       1
    21    5   21       1
    22    5   22       1
    23    7   23       1
    24    7   24       1
    25    7   25       1
    26    8   26       1
    27    9   27       1
    28   10   28       1
    29   11   29       1
    30   13   30       1
@<TRIPOS>SUBSTRUCTURE
     1 LOG2042     1 GROUP             4 B     LOG     0 **** LOG B2042
