@<TRIPOS>MOLECULE
2w0x_PD2_1_ligand
   15    15     1     0     0
SMALL
NO_CHARGES


@<TRIPOS>ATOM
     1 O42         16.4820    25.7290    29.3780 O.co2        1 PD21351   0.0000
     2 C41         17.4950    25.1540    28.6100 C.2          1 PD21351   0.0000
     3 O41         17.1600    24.4080    27.4740 O.co2        1 PD21351  -1.0000
     4 C4          18.8860    25.7720    28.7470 C.ar         1 PD21351   0.0000
     5 C5          18.9930    26.9360    29.3280 C.ar         1 PD21351   0.0000
     6 C6          20.3620    27.5850    29.5190 C.ar         1 PD21351   0.0000
     7 C3          20.1170    25.0760    28.2330 C.ar         1 PD21351   0.0000
     8 C2          21.2850    25.6790    28.4120 C.ar         1 PD21351   0.0000
     9 N1          21.4020    26.9880    29.0930 N.ar         1 PD21351   0.0000
    10 C21         22.5390    25.0780    27.8310 C.2          1 PD21351   0.0000
    11 O21         23.6750    25.8740    27.7280 O.co2        1 PD21351   0.0000
    12 O22         22.4720    23.8360    27.1880 O.co2        1 PD21351  -1.0000
    13 H1          18.1717    27.4066    29.6507 H            1 PD21351   0.0000
    14 H2          20.4406    28.4715    29.9749 H            1 PD21351   0.0000
    15 H3          20.0568    24.1902    27.7728 H            1 PD21351   0.0000
@<TRIPOS>BOND
     1    1    2      ar
     2    2    3      ar
     3    2    4       1
     4    4    5      ar
     5    4    7      ar
     6    5    6      ar
     7    6    9      ar
     8    7    8      ar
     9    8    9      ar
    10    8   10       1
    11   10   11      ar
    12   10   12      ar
    13    7   15       1
    14    5   13       1
    15    6   14       1
@<TRIPOS>SUBSTRUCTURE
     1 PD21351     1 GROUP             4 A     PD2     0 **** PD2 A1351
