@<TRIPOS>MOLECULE
2wge_TLM_1_ligand
   28    28     1     0     0
SMALL
NO_CHARGES


@<TRIPOS>ATOM
     1 S1          37.4440    -0.0810    -7.6090 S.3          1 TLM1424   0.0000
     2 C1          38.6740    -1.2100    -7.3970 C.2          1 TLM1424   0.0000
     3 C2          39.5630    -0.8070    -6.3890 C.2          1 TLM1424   0.0000
     4 C3          39.2710     0.4250    -5.7840 C.2          1 TLM1424   0.0000
     5 C4          38.0010     1.0860    -6.2980 C.3          1 TLM1424   0.0000
     6 C5          38.2250     2.4000    -6.7780 C.2          1 TLM1424   0.0000
     7 C6          37.2270     3.1920    -7.3450 C.2          1 TLM1424   0.0000
     8 C7          35.9090     2.7390    -7.4730 C.2          1 TLM1424   0.0000
     9 C8          34.9900     3.5740    -8.0090 C.2          1 TLM1424   0.0000
    10 O1          38.7490    -2.2470    -8.0310 O.2          1 TLM1424   0.0000
    11 C9          40.7760    -1.6260    -5.9750 C.3          1 TLM1424   0.0000
    12 O2          40.0320     0.9540    -4.7900 O.3          1 TLM1424   0.0000
    13 C10         36.9770     0.9830    -5.1300 C.3          1 TLM1424   0.0000
    14 C11         37.5340     4.6020    -7.8560 C.3          1 TLM1424   0.0000
    15 H1          39.1474     2.7796    -6.7064 H            1 TLM1424   0.0000
    16 H2          35.6528     1.8194    -7.1751 H            1 TLM1424   0.0000
    17 H3          34.0415     3.2742    -8.1113 H            1 TLM1424   0.0000
    18 H4          35.2590     4.4912    -8.3030 H            1 TLM1424   0.0000
    19 H5          41.2647    -1.1512    -5.2430 H            1 TLM1424   0.0000
    20 H6          40.4772    -2.5229    -5.6491 H            1 TLM1424   0.0000
    21 H7          41.3836    -1.7423    -6.7607 H            1 TLM1424   0.0000
    22 H8          39.7862     1.8358    -4.3875 H            1 TLM1424   0.0000
    23 H9          37.2463     1.6051    -4.3948 H            1 TLM1424   0.0000
    24 H10         36.0671     1.2327    -5.4614 H            1 TLM1424   0.0000
    25 H11         36.9598     0.0451    -4.7835 H            1 TLM1424   0.0000
    26 H12         36.6999     5.0117    -8.2253 H            1 TLM1424   0.0000
    27 H13         37.8752     5.1630    -7.1017 H            1 TLM1424   0.0000
    28 H14         38.2275     4.5524    -8.5747 H            1 TLM1424   0.0000
@<TRIPOS>BOND
     1    1    2       1
     2    1    5       1
     3    2    3       1
     4    2   10       2
     5    3    4       2
     6    3   11       1
     7    4    5       1
     8    4   12       1
     9    5    6       1
    10    5   13       1
    11    6    7       2
    12    7    8       1
    13    7   14       1
    14    8    9       2
    15    6   15       1
    16    8   16       1
    17    9   17       1
    18    9   18       1
    19   11   19       1
    20   11   20       1
    21   11   21       1
    22   12   22       1
    23   13   23       1
    24   13   24       1
    25   13   25       1
    26   14   26       1
    27   14   27       1
    28   14   28       1
@<TRIPOS>SUBSTRUCTURE
     1 TLM1424     1 GROUP             4 A     TLM     0 **** TLM A1424
