@<TRIPOS>MOLECULE
1hdg_NAD_2_ligand
   70    74     1     0     0
SMALL
NO_CHARGES


@<TRIPOS>ATOM
     1 PA          34.1320    44.2090   104.8110 P.3          1 NAD336   0.0000
     2 O1A         33.3540    43.0540   104.3890 O.co2        1 NAD336   0.0000
     3 O2A         33.6500    45.0940   105.9070 O.co2        1 NAD336  -1.0000
     4 O5B         34.4890    45.0990   103.5220 O.3          1 NAD336   0.0000
     5 C5B         34.3920    44.6260   102.1680 C.3          1 NAD336   0.0000
     6 C4B         33.9480    45.8620   101.4260 C.3          1 NAD336   0.0000
     7 O4B         34.3140    45.7140   100.0380 O.3          1 NAD336   0.0000
     8 C3B         32.4270    46.0240   101.5020 C.3          1 NAD336   0.0000
     9 O3B         32.0090    47.3820   101.7280 O.3          1 NAD336   0.0000
    10 C2B         31.9770    45.4640   100.1510 C.3          1 NAD336   0.0000
    11 O2B         30.8150    46.1700    99.7560 O.3          1 NAD336   0.0000
    12 C1B         33.1240    45.8360    99.2350 C.3          1 NAD336   0.0000
    13 N9A         33.2300    44.9510    98.0500 N.pl3        1 NAD336   0.0000
    14 C8A         33.1390    43.6040    98.0050 C.2          1 NAD336   0.0000
    15 N7A         33.2870    43.1760    96.7450 N.2          1 NAD336   0.0000
    16 C5A         33.4390    44.2920    96.0330 C.ar         1 NAD336   0.0000
    17 C6A         33.8320    44.3340    94.7080 C.ar         1 NAD336   0.0000
    18 N6A         33.7940    43.2880    93.8960 N.pl3        1 NAD336   0.0000
    19 N1A         34.2160    45.5330    94.2700 N.ar         1 NAD336   0.0000
    20 C2A         34.2370    46.6130    95.0430 C.ar         1 NAD336   0.0000
    21 N3A         33.9030    46.5630    96.3160 N.ar         1 NAD336   0.0000
    22 C4A         33.4780    45.4030    96.8250 C.ar         1 NAD336   0.0000
    23 O3          35.5140    43.5060   105.1710 O.3          1 NAD336   0.0000
    24 PN          36.8560    43.8560   105.9190 P.3          1 NAD336   0.0000
    25 O1N         36.8250    43.3260   107.3280 O.co2        1 NAD336   0.0000
    26 O2N         37.1340    45.2940   105.7390 O.co2        1 NAD336  -1.0000
    27 O5D         37.8520    43.0260   105.0040 O.3          1 NAD336   0.0000
    28 C5D         38.4840    43.5470   103.8180 C.3          1 NAD336   0.0000
    29 C4D         39.7640    42.7580   103.5390 C.3          1 NAD336   0.0000
    30 O4D         40.7500    43.1220   104.5100 O.3          1 NAD336   0.0000
    31 C3D         39.5500    41.2530   103.6850 C.3          1 NAD336   0.0000
    32 O3D         40.4170    40.4910   102.8730 O.3          1 NAD336   0.0000
    33 C2D         39.9690    40.9750   105.1040 C.3          1 NAD336   0.0000
    34 O2D         40.3920    39.6210   105.3140 O.3          1 NAD336   0.0000
    35 C1D         41.0910    41.9690   105.3110 C.3          1 NAD336   0.0000
    36 N1N         41.3590    42.2340   106.7610 N.ar         1 NAD336   1.0000
    37 C2N         40.3360    42.3860   107.7270 C.ar         1 NAD336   0.0000
    38 C3N         40.6590    42.7490   109.0430 C.ar         1 NAD336   0.0000
    39 C7N         39.6090    42.9110   110.1340 C.2          1 NAD336   0.0000
    40 O7N         39.9330    42.6710   111.3070 O.2          1 NAD336   0.0000
    41 N7N         38.3710    43.1920   109.7230 N.am         1 NAD336   0.0000
    42 C4N         41.9970    42.9320   109.4110 C.ar         1 NAD336   0.0000
    43 C5N         43.0080    42.7410   108.4770 C.ar         1 NAD336   0.0000
    44 C6N         42.6960    42.4010   107.1580 C.ar         1 NAD336   0.0000
    45 H5B1        33.7161    43.8933   102.0880 H            1 NAD336   0.0000
    46 H5B2        35.2768    44.3013   101.8337 H            1 NAD336   0.0000
    47 H4B         34.3955    46.6690   101.8114 H            1 NAD336   0.0000
    48 H3B         32.0704    45.4437   102.2341 H            1 NAD336   0.0000
    49 H5          32.3361    47.9602   100.9806 H            1 NAD336   0.0000
    50 H2B         31.8254    44.4761   100.1837 H            1 NAD336   0.0000
    51 H7          31.0281    47.1437    99.6747 H            1 NAD336   0.0000
    52 H1B         33.0186    46.7843    98.9356 H            1 NAD336   0.0000
    53 H8A         32.9838    43.0131    98.7967 H            1 NAD336   0.0000
    54 H6A1        34.0922    43.3814    92.9461 H            1 NAD336   0.0000
    55 H6A2        33.4671    42.4051    94.2330 H            1 NAD336   0.0000
    56 H2A         34.5142    47.4886    94.6473 H            1 NAD336   0.0000
    57 H5D1        38.7095    44.5114   103.9559 H            1 NAD336   0.0000
    58 H5D2        37.8608    43.4582   103.0410 H            1 NAD336   0.0000
    59 H4D         40.0985    42.9664   102.6199 H            1 NAD336   0.0000
    60 H3D         38.5937    41.0040   103.5316 H            1 NAD336   0.0000
    61 H17         39.9675    39.6353   102.6168 H            1 NAD336   0.0000
    62 H2D         39.2139    41.1893   105.7236 H            1 NAD336   0.0000
    63 H19         40.1915    39.3514   106.2559 H            1 NAD336   0.0000
    64 H1D         41.9207    41.5690   104.9216 H            1 NAD336   0.0000
    65 H2N         39.3813    42.2344   107.4711 H            1 NAD336   0.0000
    66 H7N1        37.6369    43.3102   110.3917 H            1 NAD336   0.0000
    67 H7N2        38.1773    43.2843   108.7463 H            1 NAD336   0.0000
    68 H4N         42.2255    43.2004   110.3468 H            1 NAD336   0.0000
    69 H5N         43.9640    42.8474   108.7502 H            1 NAD336   0.0000
    70 H6N         43.4306    42.2755   106.4912 H            1 NAD336   0.0000
@<TRIPOS>BOND
     1    1    2      ar
     2    1    3      ar
     3    1    4       1
     4    1   23       1
     5    4    5       1
     6    5    6       1
     7    6    7       1
     8    6    8       1
     9    7   12       1
    10    8    9       1
    11    8   10       1
    12   10   11       1
    13   10   12       1
    14   12   13       1
    15   13   14       1
    16   13   22       1
    17   14   15       2
    18   15   16       1
    19   16   17      ar
    20   16   22      ar
    21   17   18       1
    22   17   19      ar
    23   19   20      ar
    24   20   21      ar
    25   21   22      ar
    26   23   24       1
    27   24   25      ar
    28   24   26      ar
    29   24   27       1
    30   27   28       1
    31   28   29       1
    32   29   30       1
    33   29   31       1
    34   30   35       1
    35   31   32       1
    36   31   33       1
    37   33   34       1
    38   33   35       1
    39   35   36       1
    40   36   37      ar
    41   36   44      ar
    42   37   38      ar
    43   38   39       1
    44   38   42      ar
    45   39   40       2
    46   39   41      am
    47   42   43      ar
    48   43   44      ar
    49   44   70       1
    50    5   45       1
    51    5   46       1
    52    6   47       1
    53    8   48       1
    54    9   49       1
    55   10   50       1
    56   11   51       1
    57   12   52       1
    58   14   53       1
    59   18   54       1
    60   18   55       1
    61   20   56       1
    62   43   69       1
    63   28   57       1
    64   28   58       1
    65   29   59       1
    66   31   60       1
    67   32   61       1
    68   33   62       1
    69   34   63       1
    70   35   64       1
    71   37   65       1
    72   41   66       1
    73   41   67       1
    74   42   68       1
@<TRIPOS>SUBSTRUCTURE
     1 NAD336      1 GROUP             4 Q     NAD     0 **** NAD Q 336
