@<TRIPOS>MOLECULE
1q0z_AKA_1_ligand
  106   112     1     0     0
SMALL
NO_CHARGES


@<TRIPOS>ATOM
     1 O15         22.1440     5.4370    12.1650 O.2          1 AKA600   0.0000
     2 C42         22.3870     6.0290    13.2160 C.2          1 AKA600   0.0000
     3 C40         21.8920     5.5300    14.5500 C.3          1 AKA600   0.0000
     4 C38         20.5250     6.2800    14.4370 C.3          1 AKA600   0.0000
     5 C39         22.8160     7.4720    13.1680 C.3          1 AKA600   0.0000
     6 C41         23.5710     7.8650    11.8860 C.3          1 AKA600   0.0000
     7 O14         21.5450     8.1430    13.0710 O.3          1 AKA600   0.0000
     8 C37         20.7340     7.8340    14.2440 C.3          1 AKA600   0.0000
     9 O13         19.4780     8.5930    14.2230 O.3          1 AKA600   0.0000
    10 C35         18.9690     9.0890    12.9530 C.3          1 AKA600   0.0000
    11 C34         18.0750     8.0230    12.2430 C.3          1 AKA600   0.0000
    12 C36         18.8540     6.8350    11.6620 C.3          1 AKA600   0.0000
    13 O11         17.3240     8.8030    11.2980 O.3          1 AKA600   0.0000
    14 C33         18.1790    10.3830    13.3220 C.3          1 AKA600   0.0000
    15 O12         19.0190    11.5280    13.5290 O.3          1 AKA600   0.0000
    16 C32         17.2320    10.8490    12.2360 C.3          1 AKA600   0.0000
    17 C31         16.5890     9.6480    11.5830 C.3          1 AKA600   0.0000
    18 O4'         15.2100     9.5940    11.1860 O.3          1 AKA600   0.0000
    19 C4'         14.5660    10.8910    11.2060 C.3          1 AKA600   0.0000
    20 C5'         13.2890    10.7200    12.0560 C.3          1 AKA600   0.0000
    21 C6'         13.5420    10.1710    13.4810 C.3          1 AKA600   0.0000
    22 O5'         12.3540     9.8500    11.3750 O.3          1 AKA600   0.0000
    23 C3'         14.1670    11.3860     9.7860 C.3          1 AKA600   0.0000
    24 N3'         15.2290    11.6000     8.7580 N.4          1 AKA600   1.0000
    25 C8'         16.0680    10.6920     8.4050 C.3          1 AKA600   0.0000
    26 C7'         15.2750    12.7520     8.1760 C.3          1 AKA600   0.0000
    27 C2'         13.1830    10.4000     9.1390 C.3          1 AKA600   0.0000
    28 C1'         11.9690    10.2490    10.0350 C.3          1 AKA600   0.0000
    29 O7          11.3020    11.5170    10.1360 O.3          1 AKA600   0.0000
    30 C7           9.9940    11.7570     9.5820 C.3          1 AKA600   0.0000
    31 C8           9.1420    10.9790    10.5850 C.3          1 AKA600   0.0000
    32 C9           8.8750    11.7870    11.8870 C.3          1 AKA600   0.0000
    33 O9          10.1040    12.2950    12.4430 O.3          1 AKA600   0.0000
    34 C13          8.2230    10.8080    12.8630 C.3          1 AKA600   0.0000
    35 C14          9.1190     9.6590    13.3340 C.3          1 AKA600   0.0000
    36 C20          9.9400    13.2300     9.7530 C.ar         1 AKA600   0.0000
    37 C19          8.9280    13.7710    10.5640 C.ar         1 AKA600   0.0000
    38 C10          7.9320    12.8470    11.2820 C.3          1 AKA600   0.0000
    39 C11          8.8750    15.1560    10.8130 C.ar         1 AKA600   0.0000
    40 C18          9.8120    16.0460    10.2510 C.ar         1 AKA600   0.0000
    41 C17         10.8750    15.4430     9.4000 C.ar         1 AKA600   0.0000
    42 C6          10.9100    14.0700     9.1860 C.ar         1 AKA600   0.0000
    43 O6          11.8980    13.6060     8.4290 O.3          1 AKA600   0.0000
    44 C12          9.7970    17.4470    10.4710 C.2          1 AKA600   0.0000
    45 O3           8.8950    17.9400    11.1990 O.2          1 AKA600   0.0000
    46 C15         10.7660    18.3030     9.8950 C.ar         1 AKA600   0.0000
    47 C1          10.7300    19.6990    10.1420 C.ar         1 AKA600   0.0000
    48 C2          11.6940    20.5360     9.5730 C.ar         1 AKA600   0.0000
    49 C3          12.6920    20.0130     8.7620 C.ar         1 AKA600   0.0000
    50 C16         11.8020    17.7870     9.0660 C.ar         1 AKA600   0.0000
    51 C5          11.8840    16.3310     8.7740 C.2          1 AKA600   0.0000
    52 O5          12.7300    15.8550     7.9750 O.2          1 AKA600   0.0000
    53 C4          12.7530    18.6430     8.5050 C.ar         1 AKA600   0.0000
    54 O4          13.7260    18.1530     7.7280 O.3          1 AKA600   0.0000
    55 H1          22.4502     5.8402    15.3195 H            1 AKA600   0.0000
    56 H2          21.7948     4.5355    14.5883 H            1 AKA600   0.0000
    57 H3          19.9983     6.1239    15.2726 H            1 AKA600   0.0000
    58 H4          20.0202     5.9198    13.6525 H            1 AKA600   0.0000
    59 H5          23.3163     7.7393    13.9915 H            1 AKA600   0.0000
    60 H6          23.8206     8.8324    11.9294 H            1 AKA600   0.0000
    61 H7          24.3991     7.3105    11.8036 H            1 AKA600   0.0000
    62 H8          22.9840     7.7075    11.0919 H            1 AKA600   0.0000
    63 H9          21.2483     8.1543    15.0396 H            1 AKA600   0.0000
    64 H10         19.7368     9.3273    12.3582 H            1 AKA600   0.0000
    65 H11         17.4328     7.6641    12.9204 H            1 AKA600   0.0000
    66 H12         18.2166     6.1995    11.2263 H            1 AKA600   0.0000
    67 H13         19.5102     7.1662    10.9839 H            1 AKA600   0.0000
    68 H14         19.3428     6.3653    12.3972 H            1 AKA600   0.0000
    69 H15         17.6542    10.2133    14.1562 H            1 AKA600   0.0000
    70 H16         18.4530    12.3191    13.7610 H            1 AKA600   0.0000
    71 H17         17.7408    11.3694    11.5502 H            1 AKA600   0.0000
    72 H18         16.5238    11.4298    12.6373 H            1 AKA600   0.0000
    73 H19         16.3895     9.2269    12.4678 H            1 AKA600   0.0000
    74 H4'         15.1706    11.5602    11.6380 H            1 AKA600   0.0000
    75 H5'         12.8597    11.6186    12.1466 H            1 AKA600   0.0000
    76 H6'1        12.6714    10.0890    13.9661 H            1 AKA600   0.0000
    77 H6'2        13.9755     9.2719    13.4197 H            1 AKA600   0.0000
    78 H6'3        14.1426    10.7975    13.9778 H            1 AKA600   0.0000
    79 H3'         13.6848    12.2547     9.8994 H            1 AKA600   0.0000
    80 H8'1        16.6823    11.0592     7.7066 H            1 AKA600   0.0000
    81 H8'2        16.6016    10.4039     9.2002 H            1 AKA600   0.0000
    82 H8'3        15.5727     9.9067     8.0337 H            1 AKA600   0.0000
    83 H7'1        16.0259    12.7621     7.5156 H            1 AKA600   0.0000
    84 H7'2        14.4112    12.9203     7.7012 H            1 AKA600   0.0000
    85 H7'3        15.4236    13.4656     8.8606 H            1 AKA600   0.0000
    86 H2'1        13.6267     9.5112     9.0240 H            1 AKA600   0.0000
    87 H2'2        12.8985    10.7486     8.2459 H            1 AKA600   0.0000
    88 H1'         11.3458     9.5701     9.6469 H            1 AKA600   0.0000
    89 H35          9.8898    11.4522     8.6353 H            1 AKA600   0.0000
    90 H36          9.6190    10.1332    10.8239 H            1 AKA600   0.0000
    91 H37          8.2650    10.7580    10.1584 H            1 AKA600   0.0000
    92 H38         10.8715    12.0157    11.8660 H            1 AKA600   0.0000
    93 H39          7.4224    10.4113    12.4140 H            1 AKA600   0.0000
    94 H40          7.9320    11.3232    13.6691 H            1 AKA600   0.0000
    95 H41          8.6084     9.0754    13.9654 H            1 AKA600   0.0000
    96 H42          9.4121     9.1197    12.5445 H            1 AKA600   0.0000
    97 H43          9.9217    10.0316    13.7997 H            1 AKA600   0.0000
    98 H44          7.4281    13.3362    11.9938 H            1 AKA600   0.0000
    99 H45          7.2860    12.4363    10.6386 H            1 AKA600   0.0000
   100 H46          8.1537    15.5173    11.4040 H            1 AKA600   0.0000
   101 H47         12.5705    14.2371     8.0425 H            1 AKA600   0.0000
   102 H48         10.0142    20.0850    10.7239 H            1 AKA600   0.0000
   103 H49         11.6646    21.5195     9.7515 H            1 AKA600   0.0000
   104 H50         13.3733    20.6237     8.3584 H            1 AKA600   0.0000
   105 H51         13.7713    17.1714     7.5427 H            1 AKA600   0.0000
   106 H52         15.8601    11.9214     9.4639 H            1 AKA600   0.0000
@<TRIPOS>BOND
     1    1    2       2
     2    2    3       1
     3    2    5       1
     4    3    4       1
     5    4    8       1
     6    5    6       1
     7    5    7       1
     8    7    8       1
     9    8    9       1
    10    9   10       1
    11   10   11       1
    12   10   14       1
    13   11   12       1
    14   11   13       1
    15   13   17       1
    16   14   15       1
    17   14   16       1
    18   16   17       1
    19   17   18       1
    20   18   19       1
    21   19   20       1
    22   19   23       1
    23   20   21       1
    24   20   22       1
    25   22   28       1
    26   23   24       1
    27   23   27       1
    28   24   25       1
    29   24   26       1
    30   27   28       1
    31   28   29       1
    32   29   30       1
    33   30   31       1
    34   30   36       1
    35   31   32       1
    36   32   33       1
    37   32   34       1
    38   32   38       1
    39   34   35       1
    40   36   37      ar
    41   36   42      ar
    42   37   38       1
    43   37   39      ar
    44   39   40      ar
    45   40   41      ar
    46   40   44       1
    47   41   42      ar
    48   41   51       1
    49   42   43       1
    50   44   45       2
    51   44   46       1
    52   46   47      ar
    53   46   50      ar
    54   47   48      ar
    55   48   49      ar
    56   49   53      ar
    57   50   51       1
    58   50   53      ar
    59   51   52       2
    60   53   54       1
    61    3   55       1
    62    3   56       1
    63    4   57       1
    64    4   58       1
    65    5   59       1
    66    6   60       1
    67    6   61       1
    68    6   62       1
    69    8   63       1
    70   10   64       1
    71   11   65       1
    72   12   66       1
    73   12   67       1
    74   12   68       1
    75   14   69       1
    76   15   70       1
    77   16   71       1
    78   16   72       1
    79   17   73       1
    80   19   74       1
    81   20   75       1
    82   21   76       1
    83   21   77       1
    84   21   78       1
    85   23   79       1
    86   25   80       1
    87   25   81       1
    88   25   82       1
    89   26   83       1
    90   26   84       1
    91   26   85       1
    92   27   86       1
    93   27   87       1
    94   28   88       1
    95   30   89       1
    96   31   90       1
    97   31   91       1
    98   33   92       1
    99   34   93       1
   100   34   94       1
   101   35   95       1
   102   35   96       1
   103   35   97       1
   104   38   98       1
   105   38   99       1
   106   39  100       1
   107   43  101       1
   108   47  102       1
   109   48  103       1
   110   49  104       1
   111   54  105       1
   112   24  106       1
@<TRIPOS>SUBSTRUCTURE
     1 AKA600      1 GROUP             4 A     AKA     0 **** AKA A 600
