@<TRIPOS>MOLECULE
2hry_ACP_1_ligand
   45    47     1     0     0
SMALL
NO_CHARGES


@<TRIPOS>ATOM
     1 PG          53.5530   -34.1470   190.4040 P.3          1 ACP900   0.0000
     2 O1G         52.4550   -34.4470   191.4070 O.co2        1 ACP900   0.0000
     3 O2G         54.7250   -35.0410   190.6320 O.co2        1 ACP900  -1.0000
     4 O3G         53.0410   -34.1800   188.9730 O.co2        1 ACP900  -1.0000
     5 PB          55.2760   -32.0090   191.2700 P.3          1 ACP900   0.0000
     6 O1B         55.8740   -30.9110   190.4450 O.co2        1 ACP900   0.0000
     7 O2B         56.2940   -33.0110   191.5950 O.co2        1 ACP900  -1.0000
     8 C3B         53.9850   -32.4700   190.3790 C.3          1 ACP900   0.0000
     9 PA          54.0030   -31.1160   193.9510 P.3          1 ACP900   0.0000
    10 O1A         54.1880   -32.2660   194.9150 O.co2        1 ACP900   0.0000
    11 O2A         52.6140   -30.9950   193.4140 O.co2        1 ACP900  -1.0000
    12 O3A         55.0300   -31.2400   192.7220 O.3          1 ACP900   0.0000
    13 O5'         54.6800   -29.9090   194.7610 O.3          1 ACP900   0.0000
    14 C5'         54.8570   -28.6740   194.0060 C.3          1 ACP900   0.0000
    15 C4'         55.8550   -27.4870   194.3140 C.3          1 ACP900   0.0000
    16 O4'         55.4780   -26.7490   195.4470 O.3          1 ACP900   0.0000
    17 C3'         57.1190   -28.2090   194.6450 C.3          1 ACP900   0.0000
    18 O3'         58.2230   -27.5160   194.1070 O.3          1 ACP900   0.0000
    19 C2'         57.0650   -28.3770   196.1920 C.3          1 ACP900   0.0000
    20 O2'         58.3630   -28.3960   196.7580 O.3          1 ACP900   0.0000
    21 C1'         56.1970   -27.2440   196.5900 C.3          1 ACP900   0.0000
    22 N9          55.1640   -27.5550   197.6700 N.pl3        1 ACP900   0.0000
    23 C8          53.8990   -28.0210   197.5890 C.2          1 ACP900   0.0000
    24 N7          53.2480   -28.1970   198.7370 N.2          1 ACP900   0.0000
    25 C5          54.1640   -27.8160   199.6220 C.ar         1 ACP900   0.0000
    26 C6          54.2070   -27.7260   201.0700 C.ar         1 ACP900   0.0000
    27 N6          53.1330   -28.0840   201.8340 N.pl3        1 ACP900   0.0000
    28 N1          55.3560   -27.2720   201.7260 N.ar         1 ACP900   0.0000
    29 C2          56.4600   -26.9040   200.9990 C.ar         1 ACP900   0.0000
    30 N3          56.5120   -26.9560   199.6330 N.ar         1 ACP900   0.0000
    31 C4          55.3750   -27.4050   199.0030 C.ar         1 ACP900   0.0000
    32 H3B1        53.1947   -31.9523   190.7068 H            1 ACP900   0.0000
    33 H3B2        54.1739   -32.2236   189.4284 H            1 ACP900   0.0000
    34 H5'1        53.9517   -28.2494   193.9969 H            1 ACP900   0.0000
    35 H5'2        55.0944   -28.9727   193.0816 H            1 ACP900   0.0000
    36 H4'         55.9726   -26.8947   193.5169 H            1 ACP900   0.0000
    37 H3'         57.0824   -29.1169   194.2275 H            1 ACP900   0.0000
    38 H7          59.0256   -27.6686   194.6837 H            1 ACP900   0.0000
    39 H2'         56.6013   -29.2355   196.4108 H            1 ACP900   0.0000
    40 H9          58.2927   -28.5048   197.7496 H            1 ACP900   0.0000
    41 H1'         56.7846   -26.5085   196.9274 H            1 ACP900   0.0000
    42 H11         53.4714   -28.2243   196.7082 H            1 ACP900   0.0000
    43 H12         53.1828   -28.0146   202.8303 H            1 ACP900   0.0000
    44 H13         52.2968   -28.4155   201.3970 H            1 ACP900   0.0000
    45 H14         57.2675   -26.5814   201.4928 H            1 ACP900   0.0000
@<TRIPOS>BOND
     1    1    2      ar
     2    1    3      ar
     3    1    4      ar
     4    1    8       1
     5    5    6      ar
     6    5    7      ar
     7    5    8       1
     8    5   12       1
     9    9   10      ar
    10    9   11      ar
    11    9   12       1
    12    9   13       1
    13   13   14       1
    14   14   15       1
    15   15   16       1
    16   15   17       1
    17   16   21       1
    18   17   18       1
    19   17   19       1
    20   19   20       1
    21   19   21       1
    22   21   22       1
    23   22   23       1
    24   22   31       1
    25   23   24       2
    26   24   25       1
    27   25   26      ar
    28   25   31      ar
    29   26   27       1
    30   26   28      ar
    31   28   29      ar
    32   29   30      ar
    33   30   31      ar
    34   29   45       1
    35   27   44       1
    36   27   43       1
    37    8   32       1
    38    8   33       1
    39   23   42       1
    40   14   34       1
    41   14   35       1
    42   15   36       1
    43   17   37       1
    44   18   38       1
    45   19   39       1
    46   20   40       1
    47   21   41       1
@<TRIPOS>SUBSTRUCTURE
     1 ACP900      1 GROUP             4 A     ACP     0 **** ACP A 900
