@<TRIPOS>MOLECULE
3t40_3RG_1_ligand
   23    23     1     0     0
SMALL
NO_CHARGES


@<TRIPOS>ATOM
     1 C           15.0030     4.3700     9.5930 C.2          1 3RG273   0.0000
     2 N           14.3910     2.1720    10.3680 N.pl3        1 3RG273   0.0000
     3 O           13.8390     4.4640     9.3600 O.3          1 3RG273   0.0000
     4 CA          15.5220     3.0830    10.2390 C.3          1 3RG273   0.0000
     5 OAB         12.9510    -1.8390    11.2400 O.3          1 3RG273   0.0000
     6 OAD         13.3210    -0.2450     9.7070 O.2          1 3RG273   0.0000
     7 CAE         12.7270     2.8310    13.9890 C.ar         1 3RG273   0.0000
     8 CAF         12.1170     1.4250    14.2590 C.ar         1 3RG273   0.0000
     9 CAG         13.5040     3.1080    12.6790 C.ar         1 3RG273   0.0000
    10 CAH         12.2830     0.2970    13.2090 C.ar         1 3RG273   0.0000
    11 CAL         13.2320    -0.5250    10.8590 C.2          1 3RG273   0.0000
    12 CAM         13.6700     1.9760    11.6310 C.ar         1 3RG273   0.0000
    13 CAN         13.0570     0.5800    11.9080 C.ar         1 3RG273   0.0000
    14 OXT         15.8190     5.5110     9.6000 O.2          1 3RG273   0.0000
    15 H1          14.0943     1.6594     9.5623 H            1 3RG273   0.0000
    16 HA1         15.9038     3.2835    11.1412 H            1 3RG273   0.0000
    17 HA2         16.2278     2.6718     9.6622 H            1 3RG273   0.0000
    18 HAE         12.6165     3.5593    14.6652 H            1 3RG273   0.0000
    19 HAF         11.6189     1.2496    15.1082 H            1 3RG273   0.0000
    20 HAG         13.8969     4.0118    12.5091 H            1 3RG273   0.0000
    21 HAH         11.8905    -0.6076    13.3751 H            1 3RG273   0.0000
    22 H8          13.4791     5.2962     8.9383 H            1 3RG273   0.0000
    23 HAB         12.8245    -2.5453    10.5435 H            1 3RG273   0.0000
@<TRIPOS>BOND
     1    1    3       1
     2    1    4       1
     3    1   14       2
     4    2    4       1
     5    2   12       1
     6    5   11       1
     7    6   11       2
     8    7    8      ar
     9    7    9      ar
    10    8   10      ar
    11    9   12      ar
    12   10   13      ar
    13   11   13       1
    14   12   13      ar
    15    2   15       1
    16   10   21       1
    17    4   16       1
    18    4   17       1
    19    9   20       1
    20    7   18       1
    21    8   19       1
    22    3   22       1
    23    5   23       1
@<TRIPOS>SUBSTRUCTURE
     1 3RG273      1 GROUP             4 A     3RG     0 **** 3RG A 273
