@<TRIPOS>MOLECULE
5bv3_M7G_2_ligand
   45    47     1     0     0
SMALL
NO_CHARGES


@<TRIPOS>ATOM
     1 PA          24.3660   -20.9540    84.7530 P.3          1 M7G401   0.0000
     2 O1A         23.0070   -20.6020    84.3010 O.co2        1 M7G401   0.0000
     3 O2A         24.8180   -22.3620    84.6820 O.co2        1 M7G401  -1.0000
     4 O3A         25.5630   -20.0890    84.1420 O.3          1 M7G401   0.0000
     5 O5'         24.4630   -20.3970    86.2600 O.3          1 M7G401   0.0000
     6 PB          25.5360   -19.2910    82.7650 P.3          1 M7G401   0.0000
     7 O1B         24.4410   -20.0360    81.8800 O.co2        1 M7G401   0.0000
     8 O2B         25.2020   -17.8590    82.9290 O.co2        1 M7G401  -1.0000
     9 O3B         26.9800   -19.4660    82.2800 O.co2        1 M7G401  -1.0000
    10 C5'         25.7470   -20.3510    86.8570 C.3          1 M7G401   0.0000
    11 C4'         25.9970   -19.0280    87.5520 C.3          1 M7G401   0.0000
    12 O4'         27.0550   -19.3410    88.4660 O.3          1 M7G401   0.0000
    13 C3'         26.5750   -18.0490    86.5300 C.3          1 M7G401   0.0000
    14 O3'         26.0260   -16.7600    86.7520 O.3          1 M7G401   0.0000
    15 C2'         28.0480   -17.9820    86.8570 C.3          1 M7G401   0.0000
    16 O2'         28.4450   -16.6200    86.7120 O.3          1 M7G401   0.0000
    17 C1'         28.0620   -18.3630    88.3290 C.3          1 M7G401   0.0000
    18 N9          29.2690   -19.0070    88.8070 N.pl3        1 M7G401   0.0000
    19 C8          29.9760   -20.0230    88.0400 C.3          1 M7G401   0.0000
    20 N7          31.1290   -20.2670    88.9080 N.pl3        1 M7G401   0.0000
    21 CM7         32.2960   -21.0460    88.4510 C.3          1 M7G401   0.0000
    22 C5          30.9680   -19.6610    90.0920 C.2          1 M7G401   0.0000
    23 C6          31.7160   -19.6970    91.2630 C.2          1 M7G401   0.0000
    24 O6          32.7460   -20.3380    91.4710 O.2          1 M7G401   0.0000
    25 N1          31.1900   -18.8860    92.2850 N.pl3        1 M7G401   0.0000
    26 C2          30.0420   -18.1410    92.1450 C.2          1 M7G401   0.0000
    27 N2          29.6510   -17.4240    93.1970 N.pl3        1 M7G401   0.0000
    28 N3          29.3200   -18.1060    91.0160 N.2          1 M7G401   0.0000
    29 C4          29.8290   -18.8660    90.0420 C.2          1 M7G401   0.0000
    30 H5'1        26.4391   -20.4794    86.1467 H            1 M7G401   0.0000
    31 H5'2        25.8182   -21.0882    87.5289 H            1 M7G401   0.0000
    32 H4'         25.1826   -18.6722    88.0105 H            1 M7G401   0.0000
    33 H3'         26.4191   -18.3598    85.5924 H            1 M7G401   0.0000
    34 H5          26.2565   -16.4541    87.6757 H            1 M7G401   0.0000
    35 H2'         28.5944   -18.6028    86.2948 H            1 M7G401   0.0000
    36 H7          28.3295   -16.1445    87.5841 H            1 M7G401   0.0000
    37 H1'         27.8487   -17.5660    88.8941 H            1 M7G401   0.0000
    38 H9          30.2561   -19.6792    87.1437 H            1 M7G401   0.0000
    39 H10         29.4224   -20.8475    87.9227 H            1 M7G401   0.0000
    40 HM71        32.9710   -21.0981    89.1870 H            1 M7G401   0.0000
    41 HM72        32.0035   -21.9690    88.2011 H            1 M7G401   0.0000
    42 HM73        32.7044   -20.5988    87.6552 H            1 M7G401   0.0000
    43 H14         31.6756   -18.8491    93.1584 H            1 M7G401   0.0000
    44 H15         28.8224   -16.8668    93.1423 H            1 M7G401   0.0000
    45 H16         30.1860   -17.4428    94.0417 H            1 M7G401   0.0000
@<TRIPOS>BOND
     1    1    2      ar
     2    1    3      ar
     3    1    4       1
     4    1    5       1
     5    4    6       1
     6    5   10       1
     7    6    7      ar
     8    6    8      ar
     9    6    9      ar
    10   10   11       1
    11   11   12       1
    12   11   13       1
    13   12   17       1
    14   13   14       1
    15   13   15       1
    16   15   16       1
    17   15   17       1
    18   17   18       1
    19   18   19       1
    20   18   29       1
    21   19   20       1
    22   20   21       1
    23   20   22       1
    24   22   23       1
    25   22   29       2
    26   23   24       2
    27   23   25       1
    28   25   26       1
    29   26   27       1
    30   26   28       2
    31   28   29       1
    32   27   45       1
    33   27   44       1
    34   25   43       1
    35   10   30       1
    36   10   31       1
    37   11   32       1
    38   13   33       1
    39   14   34       1
    40   15   35       1
    41   16   36       1
    42   17   37       1
    43   19   38       1
    44   19   39       1
    45   21   40       1
    46   21   41       1
    47   21   42       1
@<TRIPOS>SUBSTRUCTURE
     1 M7G401      1 GROUP             4 C     M7G     0 **** M7G C 401
