@<TRIPOS>MOLECULE
1pnv_TYD_1_ligand
   38    39     1     0     0
SMALL
NO_CHARGES


@<TRIPOS>ATOM
     1 PA          42.4260    79.1450    28.3610 P.3          1 TYD405   0.0000
     2 O1A         41.7300    79.9180    29.4220 O.co2        1 TYD405   0.0000
     3 O2A         43.3570    78.0590    28.7600 O.co2        1 TYD405  -1.0000
     4 O3A         43.3260    80.2300    27.5430 O.3          1 TYD405   0.0000
     5 PB          44.6600    80.1600    26.6170 P.3          1 TYD405   0.0000
     6 O1B         44.5790    81.2860    25.6010 O.co2        1 TYD405   0.0000
     7 O2B         44.5840    78.7750    25.9990 O.co2        1 TYD405  -1.0000
     8 O3B         45.8220    80.3200    27.5820 O.co2        1 TYD405  -1.0000
     9 O5'         41.3230    78.5050    27.3890 O.3          1 TYD405   0.0000
    10 C5'         40.3050    79.3160    26.8010 C.3          1 TYD405   0.0000
    11 C4'         39.1170    78.4800    26.3590 C.3          1 TYD405   0.0000
    12 O4'         39.3890    77.6710    25.1950 O.3          1 TYD405   0.0000
    13 C3'         38.6000    77.4410    27.3400 C.3          1 TYD405   0.0000
    14 O3'         37.7380    78.0370    28.3010 O.3          1 TYD405   0.0000
    15 C2'         37.7980    76.4770    26.4590 C.3          1 TYD405   0.0000
    16 C1'         38.3020    76.7820    25.0430 C.3          1 TYD405   0.0000
    17 N1          38.7120    75.5980    24.2520 N.pl3        1 TYD405   0.0000
    18 C2          37.6950    74.8760    23.6530 C.2          1 TYD405   0.0000
    19 O2          36.5140    75.0520    23.9050 O.2          1 TYD405   0.0000
    20 N3          38.1150    73.9280    22.7530 N.pl3        1 TYD405   0.0000
    21 C4          39.4140    73.6270    22.4010 C.2          1 TYD405   0.0000
    22 O4          39.6290    72.7580    21.5680 O.2          1 TYD405   0.0000
    23 C5          40.4340    74.4030    23.0760 C.2          1 TYD405   0.0000
    24 C5M         41.8730    74.1240    22.7740 C.3          1 TYD405   0.0000
    25 C6          40.0370    75.3420    23.9540 C.2          1 TYD405   0.0000
    26 H5'1        40.6844    79.7884    26.0055 H            1 TYD405   0.0000
    27 H5'2        39.9969    79.9895    27.4730 H            1 TYD405   0.0000
    28 H4'         38.3648    79.1006    26.1378 H            1 TYD405   0.0000
    29 H3'         39.3579    76.9666    27.7878 H            1 TYD405   0.0000
    30 H5          37.4104    77.3364    28.9349 H            1 TYD405   0.0000
    31 H2'1        36.8170    76.6553    26.5353 H            1 TYD405   0.0000
    32 H2'2        37.9844    75.5265    26.7077 H            1 TYD405   0.0000
    33 H1'         37.5753    77.2560    24.5458 H            1 TYD405   0.0000
    34 H9          37.3984    73.3960    22.3020 H            1 TYD405   0.0000
    35 H5M1        42.4515    74.7357    23.3135 H            1 TYD405   0.0000
    36 H5M2        42.0843    73.1745    23.0061 H            1 TYD405   0.0000
    37 H5M3        42.0447    74.2753    21.8005 H            1 TYD405   0.0000
    38 H13         40.7388    75.8842    24.4161 H            1 TYD405   0.0000
@<TRIPOS>BOND
     1    1    2      ar
     2    1    3      ar
     3    1    4       1
     4    1    9       1
     5    4    5       1
     6    5    6      ar
     7    5    7      ar
     8    5    8      ar
     9    9   10       1
    10   10   11       1
    11   11   12       1
    12   11   13       1
    13   12   16       1
    14   13   14       1
    15   13   15       1
    16   15   16       1
    17   16   17       1
    18   17   18       1
    19   17   25       1
    20   18   19       2
    21   18   20       1
    22   20   21       1
    23   21   22       2
    24   21   23       1
    25   23   24       1
    26   23   25       2
    27   25   38       1
    28   24   37       1
    29   24   36       1
    30   10   26       1
    31   10   27       1
    32   11   28       1
    33   13   29       1
    34   14   30       1
    35   15   31       1
    36   15   32       1
    37   16   33       1
    38   20   34       1
    39   24   35       1
@<TRIPOS>SUBSTRUCTURE
     1 TYD405      1 GROUP             4 A     TYD     0 **** TYD A 405
