@<TRIPOS>MOLECULE
3rep_ATP_1_ligand
   43    45     1     0     0
SMALL
NO_CHARGES


@<TRIPOS>ATOM
     1 PG          -6.5570    -2.4510    15.2780 P.3          1 ATP502   0.0000
     2 O1G         -5.8590    -1.1610    15.6050 O.co2        1 ATP502   0.0000
     3 O2G         -5.8170    -3.6960    15.8390 O.co2        1 ATP502  -1.0000
     4 O3G         -7.9730    -2.4180    16.0220 O.co2        1 ATP502  -1.0000
     5 PB          -6.8690    -1.7520    12.4950 P.3          1 ATP502   0.0000
     6 O1B         -5.7680    -0.7600    12.6110 O.co2        1 ATP502   0.0000
     7 O2B         -6.8990    -2.6770    11.3320 O.co2        1 ATP502  -1.0000
     8 O3B         -6.9130    -2.7170    13.7070 O.3          1 ATP502   0.0000
     9 PA          -8.6460     0.4630    13.0730 P.3          1 ATP502   0.0000
    10 O1A        -10.1060     0.4110    13.3750 O.co2        1 ATP502   0.0000
    11 O2A         -7.6730     0.8980    14.1000 O.co2        1 ATP502  -1.0000
    12 O3A         -8.2780    -1.0160    12.5300 O.3          1 ATP502   0.0000
    13 O5'         -8.4430     1.3050    11.7860 O.3          1 ATP502   0.0000
    14 C5'         -9.4710     1.2730    10.7350 C.3          1 ATP502   0.0000
    15 C4'         -9.0720     2.2520     9.6020 C.3          1 ATP502   0.0000
    16 O4'         -9.0330     3.5950    10.1170 O.3          1 ATP502   0.0000
    17 C3'         -7.6160     2.0270     9.1450 C.3          1 ATP502   0.0000
    18 O3'         -7.5600     1.0410     8.0970 O.3          1 ATP502   0.0000
    19 C2'         -7.2270     3.3800     8.5670 C.3          1 ATP502   0.0000
    20 O2'         -7.7500     3.4760     7.2190 O.3          1 ATP502   0.0000
    21 C1'         -8.0030     4.3370     9.4680 C.3          1 ATP502   0.0000
    22 N9          -7.1290     5.0340    10.4580 N.pl3        1 ATP502   0.0000
    23 C8          -6.5040     4.5600    11.5460 C.2          1 ATP502   0.0000
    24 N7          -5.8540     5.5910    12.1530 N.2          1 ATP502   0.0000
    25 C5          -6.0580     6.6910    11.4270 C.ar         1 ATP502   0.0000
    26 C6          -5.6800     8.0480    11.5240 C.ar         1 ATP502   0.0000
    27 N6          -4.8760     8.5590    12.4900 N.pl3        1 ATP502   0.0000
    28 N1          -6.1200     8.9050    10.5820 N.ar         1 ATP502   0.0000
    29 C2          -6.9130     8.5030     9.5990 C.ar         1 ATP502   0.0000
    30 N3          -7.3050     7.2470     9.4500 N.ar         1 ATP502   0.0000
    31 C4          -6.8900     6.3220    10.3660 C.ar         1 ATP502   0.0000
    32 H5'1       -10.3518     1.5483    11.1202 H            1 ATP502   0.0000
    33 H5'2        -9.5435     0.3463    10.3662 H            1 ATP502   0.0000
    34 H4'         -9.7041     2.1829     8.8302 H            1 ATP502   0.0000
    35 H3'         -7.0274     1.7760     9.9135 H            1 ATP502   0.0000
    36 H5          -7.9312     0.1755     8.4334 H            1 ATP502   0.0000
    37 H2'         -6.2405     3.5394     8.6039 H            1 ATP502   0.0000
    38 H7          -6.9946     3.6068     6.5769 H            1 ATP502   0.0000
    39 H1'         -8.4341     5.0298     8.8899 H            1 ATP502   0.0000
    40 H9          -6.5138     3.6101    11.8585 H            1 ATP502   0.0000
    41 H10         -4.6532     9.5339    12.4911 H            1 ATP502   0.0000
    42 H11         -4.5062     7.9608    13.2009 H            1 ATP502   0.0000
    43 H12         -7.2310     9.1818     8.9371 H            1 ATP502   0.0000
@<TRIPOS>BOND
     1    1    2      ar
     2    1    3      ar
     3    1    4      ar
     4    1    8       1
     5    5    6      ar
     6    5    7      ar
     7    5    8       1
     8    5   12       1
     9    9   10      ar
    10    9   11      ar
    11    9   12       1
    12    9   13       1
    13   13   14       1
    14   14   15       1
    15   15   16       1
    16   15   17       1
    17   16   21       1
    18   17   18       1
    19   17   19       1
    20   19   20       1
    21   19   21       1
    22   21   22       1
    23   22   23       1
    24   22   31       1
    25   23   24       2
    26   24   25       1
    27   25   26      ar
    28   25   31      ar
    29   26   27       1
    30   26   28      ar
    31   28   29      ar
    32   29   30      ar
    33   30   31      ar
    34   29   43       1
    35   27   42       1
    36   27   41       1
    37   23   40       1
    38   14   32       1
    39   14   33       1
    40   15   34       1
    41   17   35       1
    42   18   36       1
    43   19   37       1
    44   20   38       1
    45   21   39       1
@<TRIPOS>SUBSTRUCTURE
     1 ATP502      1 GROUP             4 A     ATP     0 **** ATP A 502
