@<TRIPOS>MOLECULE
4z28_BTN_1_ligand
   31    32     1     0     0
SMALL
NO_CHARGES


@<TRIPOS>ATOM
     1 C11         42.2960    -3.4020    26.1730 C.2          1 BTN201   0.0000
     2 O11         42.6670    -3.2300    24.9640 O.co2        1 BTN201   0.0000
     3 O12         42.5360    -4.4630    26.8140 O.co2        1 BTN201  -1.0000
     4 C10         41.4770    -2.3080    26.8270 C.3          1 BTN201   0.0000
     5 C9          40.2910    -2.8510    27.6560 C.3          1 BTN201   0.0000
     6 C8          39.2190    -3.6000    26.8580 C.3          1 BTN201   0.0000
     7 C7          38.0410    -4.1090    27.6860 C.3          1 BTN201   0.0000
     8 C2          37.0460    -4.9030    26.8740 C.3          1 BTN201   0.0000
     9 S1          35.9840    -3.8180    25.9560 S.3          1 BTN201   0.0000
    10 C6          34.8630    -5.1270    25.7220 C.3          1 BTN201   0.0000
    11 C5          34.8020    -5.9410    26.9950 C.3          1 BTN201   0.0000
    12 N1          33.8140    -5.3820    27.9030 N.am         1 BTN201   0.0000
    13 C3          34.3600    -5.0110    29.0740 C.2          1 BTN201   0.0000
    14 O3          33.7080    -4.4840    29.9650 O.2          1 BTN201   0.0000
    15 N2          35.6720    -5.2400    29.0180 N.am         1 BTN201   0.0000
    16 C4          36.1210    -5.7870    27.7250 C.3          1 BTN201   0.0000
    17 H1          41.1173    -1.7090    26.1116 H            1 BTN201   0.0000
    18 H2          42.0743    -1.7823    27.4327 H            1 BTN201   0.0000
    19 H3          39.8519    -2.0760    28.1105 H            1 BTN201   0.0000
    20 H4          40.6570    -3.4773    28.3443 H            1 BTN201   0.0000
    21 H5          39.6521    -4.3864    26.4175 H            1 BTN201   0.0000
    22 H6          38.8627    -2.9805    26.1585 H            1 BTN201   0.0000
    23 H7          37.5701    -3.3229    28.0864 H            1 BTN201   0.0000
    24 H8          38.3943    -4.6934    28.4165 H            1 BTN201   0.0000
    25 H9          37.5454    -5.4843    26.2316 H            1 BTN201   0.0000
    26 H10         35.1723    -5.7049    24.9668 H            1 BTN201   0.0000
    27 H11         33.9564    -4.7610    25.5120 H            1 BTN201   0.0000
    28 H12         34.6085    -6.9024    26.7992 H            1 BTN201   0.0000
    29 H13         32.8434    -5.2850    27.6827 H            1 BTN201   0.0000
    30 H14         36.2926    -5.0580    29.7807 H            1 BTN201   0.0000
    31 H15         36.5403    -6.6844    27.8626 H            1 BTN201   0.0000
@<TRIPOS>BOND
     1    1    2      ar
     2    1    3      ar
     3    1    4       1
     4    4    5       1
     5    5    6       1
     6    6    7       1
     7    7    8       1
     8    8    9       1
     9    8   16       1
    10    9   10       1
    11   10   11       1
    12   11   12       1
    13   11   16       1
    14   12   13      am
    15   13   14       2
    16   13   15      am
    17   15   16       1
    18   16   31       1
    19    4   17       1
    20    4   18       1
    21    5   19       1
    22    5   20       1
    23    6   21       1
    24    6   22       1
    25    7   23       1
    26    7   24       1
    27    8   25       1
    28   10   26       1
    29   10   27       1
    30   11   28       1
    31   12   29       1
    32   15   30       1
@<TRIPOS>SUBSTRUCTURE
     1 BTN201      1 GROUP             4 A     BTN     0 **** BTN A 201
