@<TRIPOS>MOLECULE
3qm4_PN0_1_ligand
   49    51     1     0     0
SMALL
NO_CHARGES


@<TRIPOS>ATOM
     1 N1          -8.4500    -8.2090    30.4630 N.3          1 PN0503   0.0000
     2 N3          -8.2790   -10.3020    33.1390 N.am         1 PN0503   0.0000
     3 C4          -6.3240    -7.2850    29.3880 C.3          1 PN0503   0.0000
     4 C5         -10.6450    -9.8820    30.6730 C.ar         1 PN0503   0.0000
     5 C6         -10.0730   -11.0030    30.0040 C.ar         1 PN0503   0.0000
     6 C7         -10.5030   -12.2960    30.3350 C.ar         1 PN0503   0.0000
     7 C8         -11.5070   -12.4750    31.3310 C.ar         1 PN0503   0.0000
     8 C10        -11.6420   -10.0460    31.6620 C.ar         1 PN0503   0.0000
     9 C13        -13.5330   -15.5680    34.3130 C.ar         1 PN0503   0.0000
    10 C15        -11.3200   -13.8880    34.1120 C.ar         1 PN0503   0.0000
    11 C17         -6.4280    -7.0750    33.5070 C.3          1 PN0503   0.0000
    12 C1          -6.9000    -7.0820    32.0550 C.3          1 PN0503   0.0000
    13 C2          -7.9730    -8.1910    31.8580 C.3          1 PN0503   0.0000
    14 C3          -7.5150    -8.2490    29.2880 C.3          1 PN0503   0.0000
    15 S1          -5.4640    -7.2890    30.9820 S.3          1 PN0503   0.0000
    16 S2         -10.0780    -8.3190    30.2420 S.o2         1 PN0503   0.0000
    17 C9         -12.0730   -11.3370    31.9860 C.ar         1 PN0503   0.0000
    18 O1         -11.9600   -13.7130    31.6830 O.3          1 PN0503   0.0000
    19 C11        -12.1300   -14.1740    32.9520 C.ar         1 PN0503   0.0000
    20 C12        -13.2380   -15.0160    33.0620 C.ar         1 PN0503   0.0000
    21 N2         -12.7770   -15.3070    35.4090 N.ar         1 PN0503   0.0000
    22 C14        -11.6990   -14.4890    35.3280 C.ar         1 PN0503   0.0000
    23 O2         -10.3190    -8.2520    28.8260 O.2          1 PN0503   0.0000
    24 O3         -10.7460    -7.3120    31.0510 O.2          1 PN0503   0.0000
    25 C16         -7.5080    -9.6510    32.2330 C.2          1 PN0503   0.0000
    26 O4          -8.0150   -11.6210    33.5780 O.3          1 PN0503   0.0000
    27 O5          -6.5040   -10.1780    31.7150 O.2          1 PN0503   0.0000
    28 C18         -7.5750    -5.7150    31.8450 C.3          1 PN0503   0.0000
    29 H1          -9.0738    -9.8261    33.5156 H            1 PN0503   0.0000
    30 H2          -6.6605    -6.3584    29.2199 H            1 PN0503   0.0000
    31 H3          -5.6638    -7.5336    28.6792 H            1 PN0503   0.0000
    32 H4          -9.3711   -10.8686    29.3046 H            1 PN0503   0.0000
    33 H5         -10.1066   -13.0899    29.8739 H            1 PN0503   0.0000
    34 H6         -12.0337    -9.2501    32.1236 H            1 PN0503   0.0000
    35 H7         -14.3244   -16.1728    34.4022 H            1 PN0503   0.0000
    36 H8         -10.5223   -13.2877    34.0546 H            1 PN0503   0.0000
    37 H9          -5.7386    -6.3612    33.6300 H            1 PN0503   0.0000
    38 H10         -7.2056    -6.8947    34.1094 H            1 PN0503   0.0000
    39 H11         -6.0307    -7.9645    33.7327 H            1 PN0503   0.0000
    40 H12         -8.7530    -7.9634    32.4409 H            1 PN0503   0.0000
    41 H13         -8.0360    -8.0175    28.4664 H            1 PN0503   0.0000
    42 H14         -7.1576    -9.1792    29.2049 H            1 PN0503   0.0000
    43 H15        -12.7814   -11.4647    32.6801 H            1 PN0503   0.0000
    44 H16        -13.8073   -15.2197    32.2655 H            1 PN0503   0.0000
    45 H17        -11.1603   -14.3081    36.1509 H            1 PN0503   0.0000
    46 H18         -8.7094   -11.8963    34.2429 H            1 PN0503   0.0000
    47 H19         -7.9112    -5.6501    30.9055 H            1 PN0503   0.0000
    48 H20         -8.3413    -5.6205    32.4805 H            1 PN0503   0.0000
    49 H21         -6.9111    -4.9862    32.0126 H            1 PN0503   0.0000
@<TRIPOS>BOND
     1    1   13       1
     2    1   14       1
     3    1   16       1
     4    2   25      am
     5    2   26       1
     6    3   14       1
     7    3   15       1
     8    4    5      ar
     9    4    8      ar
    10    4   16       1
    11    5    6      ar
    12    6    7      ar
    13    7   17      ar
    14    7   18       1
    15    8   17      ar
    16    9   20      ar
    17    9   21      ar
    18   10   19      ar
    19   10   22      ar
    20   11   12       1
    21   12   13       1
    22   12   15       1
    23   12   28       1
    24   13   25       1
    25   16   23       2
    26   16   24       2
    27   18   19       1
    28   19   20      ar
    29   21   22      ar
    30   25   27       2
    31    2   29       1
    32    3   30       1
    33    3   31       1
    34    5   32       1
    35    6   33       1
    36    8   34       1
    37    9   35       1
    38   10   36       1
    39   11   37       1
    40   11   38       1
    41   11   39       1
    42   13   40       1
    43   14   41       1
    44   14   42       1
    45   17   43       1
    46   20   44       1
    47   22   45       1
    48   26   46       1
    49   28   47       1
    50   28   48       1
    51   28   49       1
@<TRIPOS>SUBSTRUCTURE
     1 PN0503      1 GROUP             4 A     PN0     0 **** PN0 A 503
