@<TRIPOS>MOLECULE
4hnh_NAP_2_ligand
   73    77     1     0     0
SMALL
NO_CHARGES


@<TRIPOS>ATOM
     1 PA         -26.9750    -2.4720     2.0700 P.3          1 NAP301   0.0000
     2 O1A        -27.4680    -3.8600     2.3070 O.co2        1 NAP301   0.0000
     3 O2A        -27.5860    -1.6300     3.1490 O.co2        1 NAP301  -1.0000
     4 O5B        -25.4110    -2.4150     2.1820 O.3          1 NAP301   0.0000
     5 C5B        -24.7650    -1.2320     2.5570 C.3          1 NAP301   0.0000
     6 C4B        -23.6580    -1.5600     3.4790 C.3          1 NAP301   0.0000
     7 O4B        -22.8330    -0.4080     3.6830 O.3          1 NAP301   0.0000
     8 C3B        -24.1780    -2.0140     4.8180 C.3          1 NAP301   0.0000
     9 O3B        -23.8080    -3.3190     5.0660 O.3          1 NAP301   0.0000
    10 C2B        -23.5560    -1.0480     5.7710 C.3          1 NAP301   0.0000
    11 O2B        -23.0600    -1.6440     6.9550 O.3          1 NAP301   0.0000
    12 C1B        -22.3970    -0.5020     4.9870 C.3          1 NAP301   0.0000
    13 N9A        -22.0440     0.7780     5.5320 N.pl3        1 NAP301   0.0000
    14 C8A        -22.6810     2.0090     5.3080 C.2          1 NAP301   0.0000
    15 N7A        -22.0690     2.9450     6.0350 N.2          1 NAP301   0.0000
    16 C5A        -21.0120     2.3550     6.7640 C.ar         1 NAP301   0.0000
    17 C6A        -20.0280     2.8400     7.6870 C.ar         1 NAP301   0.0000
    18 N6A        -19.9900     4.1870     8.0450 N.pl3        1 NAP301   0.0000
    19 N1A        -19.1580     1.9650     8.2120 N.ar         1 NAP301   0.0000
    20 C2A        -19.1750     0.6800     7.8750 C.ar         1 NAP301   0.0000
    21 N3A        -20.0760     0.1730     7.0130 N.ar         1 NAP301   0.0000
    22 C4A        -20.9890     0.9680     6.4540 C.ar         1 NAP301   0.0000
    23 O3         -27.4240    -1.8880     0.6680 O.3          1 NAP301   0.0000
    24 PN         -27.4310    -2.6550    -0.7390 P.3          1 NAP301   0.0000
    25 O1N        -28.7020    -3.3960    -0.9950 O.co2        1 NAP301   0.0000
    26 O2N        -26.3720    -3.6950    -0.9030 O.co2        1 NAP301  -1.0000
    27 O5D        -27.3070    -1.4970    -1.8140 O.3          1 NAP301   0.0000
    28 C5D        -26.0800    -0.7910    -1.9290 C.3          1 NAP301   0.0000
    29 C4D        -26.2740     0.7210    -1.6960 C.3          1 NAP301   0.0000
    30 O4D        -27.1330     1.3030    -2.6290 O.3          1 NAP301   0.0000
    31 C3D        -26.7940     1.1050    -0.3300 C.3          1 NAP301   0.0000
    32 O3D        -26.1960     2.2760     0.0390 O.3          1 NAP301   0.0000
    33 C2D        -28.2510     1.2830    -0.5850 C.3          1 NAP301   0.0000
    34 O2D        -28.8350     2.1010     0.3610 O.3          1 NAP301   0.0000
    35 C1D        -28.1850     1.9230    -1.9210 C.3          1 NAP301   0.0000
    36 N1N        -29.4030     1.7790    -2.7590 N.ar         1 NAP301   1.0000
    37 C2N        -30.5190     1.1140    -2.2800 C.ar         1 NAP301   0.0000
    38 C3N        -31.6510     0.9730    -3.0790 C.ar         1 NAP301   0.0000
    39 C7N        -32.8310     0.2670    -2.5730 C.2          1 NAP301   0.0000
    40 O7N        -33.7430    -0.0040    -3.3190 O.2          1 NAP301   0.0000
    41 N7N        -32.9030    -0.1250    -1.1880 N.am         1 NAP301   0.0000
    42 C4N        -31.6250     1.5130    -4.4110 C.ar         1 NAP301   0.0000
    43 C5N        -30.4210     2.1990    -4.8620 C.ar         1 NAP301   0.0000
    44 C6N        -29.3550     2.3040    -4.0310 C.ar         1 NAP301   0.0000
    45 P2B        -23.9400    -2.0630     8.2050 P.3          1 NAP301   0.0000
    46 O1X        -24.8800    -1.0050     8.7600 O.co2        1 NAP301   0.0000
    47 O2X        -24.8420    -3.2310     7.8290 O.co2        1 NAP301  -1.0000
    48 O3X        -23.0460    -2.4940     9.3610 O.co2        1 NAP301  -1.0000
    49 H5B1       -25.4149    -0.6259     3.0156 H            1 NAP301   0.0000
    50 H5B2       -24.4009    -0.7767     1.7445 H            1 NAP301   0.0000
    51 H4B        -23.1052    -2.2908     3.0786 H            1 NAP301   0.0000
    52 H3B        -25.1740    -1.9292     4.8454 H            1 NAP301   0.0000
    53 H5         -24.1616    -3.6020     5.9576 H            1 NAP301   0.0000
    54 H2B        -24.2001    -0.3163     5.9939 H            1 NAP301   0.0000
    55 H1B        -21.6183    -1.1267     5.0448 H            1 NAP301   0.0000
    56 H8A        -23.4635     2.1591     4.7038 H            1 NAP301   0.0000
    57 H6A1       -19.2990     4.5137     8.6898 H            1 NAP301   0.0000
    58 H6A2       -20.6538     4.8264     7.6570 H            1 NAP301   0.0000
    59 H2A        -18.4940     0.0674     8.2761 H            1 NAP301   0.0000
    60 H5D1       -25.7079    -0.9333    -2.8462 H            1 NAP301   0.0000
    61 H5D2       -25.4368    -1.1445    -1.2498 H            1 NAP301   0.0000
    62 H4D        -25.3797     1.1549    -1.8054 H            1 NAP301   0.0000
    63 H3D        -26.6265     0.3824     0.3407 H            1 NAP301   0.0000
    64 H16        -26.5267     2.5490     0.9424 H            1 NAP301   0.0000
    65 H2D        -28.7175     0.3998    -0.6328 H            1 NAP301   0.0000
    66 H18        -29.1619     1.5457     1.1257 H            1 NAP301   0.0000
    67 H1D        -27.9770     2.8947    -1.8092 H            1 NAP301   0.0000
    68 H2N        -30.5122     0.7329    -1.3555 H            1 NAP301   0.0000
    69 H7N1       -33.7098    -0.6067    -0.8460 H            1 NAP301   0.0000
    70 H7N2       -32.1461     0.0847    -0.5690 H            1 NAP301   0.0000
    71 H4N        -32.4163     1.4199    -5.0153 H            1 NAP301   0.0000
    72 H5N        -30.3812     2.5909    -5.7812 H            1 NAP301   0.0000
    73 H6N        -28.5261     2.7671    -4.3448 H            1 NAP301   0.0000
@<TRIPOS>BOND
     1    1    2      ar
     2    1    3      ar
     3    1    4       1
     4    1   23       1
     5    4    5       1
     6    5    6       1
     7    6    7       1
     8    6    8       1
     9    7   12       1
    10    8    9       1
    11    8   10       1
    12   10   11       1
    13   10   12       1
    14   11   45       1
    15   12   13       1
    16   13   14       1
    17   13   22       1
    18   14   15       2
    19   15   16       1
    20   16   17      ar
    21   16   22      ar
    22   17   18       1
    23   17   19      ar
    24   19   20      ar
    25   20   21      ar
    26   21   22      ar
    27   23   24       1
    28   24   25      ar
    29   24   26      ar
    30   24   27       1
    31   27   28       1
    32   28   29       1
    33   29   30       1
    34   29   31       1
    35   30   35       1
    36   31   32       1
    37   31   33       1
    38   33   34       1
    39   33   35       1
    40   35   36       1
    41   36   37      ar
    42   36   44      ar
    43   37   38      ar
    44   38   39       1
    45   38   42      ar
    46   39   40       2
    47   39   41      am
    48   42   43      ar
    49   43   44      ar
    50   45   46      ar
    51   45   47      ar
    52   45   48      ar
    53   43   72       1
    54    5   49       1
    55    5   50       1
    56    6   51       1
    57    8   52       1
    58    9   53       1
    59   10   54       1
    60   12   55       1
    61   14   56       1
    62   18   57       1
    63   18   58       1
    64   20   59       1
    65   44   73       1
    66   28   60       1
    67   28   61       1
    68   29   62       1
    69   31   63       1
    70   32   64       1
    71   33   65       1
    72   34   66       1
    73   35   67       1
    74   37   68       1
    75   41   69       1
    76   41   70       1
    77   42   71       1
@<TRIPOS>SUBSTRUCTURE
     1 NAP301      1 GROUP             4 A     NAP     0 **** NAP A 301
