@<TRIPOS>MOLECULE
2eju_SAH_1_ligand
   41    43     1     0     0
SMALL
NO_CHARGES


@<TRIPOS>ATOM
     1 N           14.7370    78.7440    36.7490 N.2          1 SAH501   0.0000
     2 CA          15.3610    78.8300    37.9410 C.2          1 SAH501   0.0000
     3 CB          14.1000    78.7410    38.8290 C.3          1 SAH501   0.0000
     4 CG          12.6350    78.6240    39.0380 C.3          1 SAH501   0.0000
     5 SD          11.4860    78.5300    40.2910 S.3          1 SAH501   0.0000
     6 C           16.7020    78.9500    38.3920 C.2          1 SAH501   0.0000
     7 O           16.7400    79.6630    39.4950 O.co2        1 SAH501   0.0000
     8 OXT         17.6400    78.4170    37.7550 O.co2        1 SAH501  -1.0000
     9 C5'         10.0700    78.4390    39.3450 C.3          1 SAH501   0.0000
    10 C4'          9.2300    79.7420    39.5470 C.3          1 SAH501   0.0000
    11 O4'          8.3510    79.6660    38.4170 O.3          1 SAH501   0.0000
    12 C3'          9.0370    81.0980    40.1830 C.3          1 SAH501   0.0000
    13 O3'          9.9720    82.2170    40.1750 O.3          1 SAH501   0.0000
    14 C2'          7.6750    81.5570    39.6640 C.2          1 SAH501   0.0000
    15 O2'          6.9300    82.5600    40.0730 O.2          1 SAH501   0.0000
    16 C1'          7.3030    80.6080    38.5610 C.3          1 SAH501   0.0000
    17 N9           6.0620    80.4460    37.6080 N.pl3        1 SAH501   0.0000
    18 C8           5.0060    79.7330    37.9620 C.2          1 SAH501   0.0000
    19 N7           4.1210    79.7460    37.0140 N.2          1 SAH501   0.0000
    20 C5           4.5800    80.4600    36.0180 C.ar         1 SAH501   0.0000
    21 C6           4.0670    80.8140    34.7560 C.ar         1 SAH501   0.0000
    22 N6           2.8730    80.3730    34.3930 N.pl3        1 SAH501   0.0000
    23 N1           4.8250    81.6190    33.8920 N.ar         1 SAH501   0.0000
    24 C2           6.0730    82.0900    34.2510 C.ar         1 SAH501   0.0000
    25 N3           6.5890    81.7550    35.4820 N.ar         1 SAH501   0.0000
    26 C4           5.8650    80.9450    36.3870 C.ar         1 SAH501   0.0000
    27 HB1         14.2441    79.5809    39.3523 H            1 SAH501   0.0000
    28 HB2         14.3779    77.9536    39.3792 H            1 SAH501   0.0000
    29 HG1         12.4318    77.7898    38.5253 H            1 SAH501   0.0000
    30 HG2         12.3023    79.4177    38.5287 H            1 SAH501   0.0000
    31 H5'1         9.5299    77.6461    39.6273 H            1 SAH501   0.0000
    32 H5'2        10.3178    78.3473    38.3805 H            1 SAH501   0.0000
    33 H4'          8.5770    79.2965    40.1594 H            1 SAH501   0.0000
    34 H3'          8.8852    80.9029    41.1520 H            1 SAH501   0.0000
    35 H9           9.7973    82.7916    39.3755 H            1 SAH501   0.0000
    36 H1'          7.7437    81.2065    37.8920 H            1 SAH501   0.0000
    37 H11          4.9046    79.2536    38.8337 H            1 SAH501   0.0000
    38 H12          2.4998    80.6190    33.4984 H            1 SAH501   0.0000
    39 H13          2.3441    79.7938    35.0133 H            1 SAH501   0.0000
    40 H14          6.5954    82.6676    33.6237 H            1 SAH501   0.0000
    41 H15         13.7417    78.6547    36.7109 H            1 SAH501   0.0000
@<TRIPOS>BOND
     1    1    2       2
     2    2    3       1
     3    2    6       1
     4    3    4       1
     5    4    5       1
     6    5    9       1
     7    6    7      ar
     8    6    8      ar
     9    9   10       1
    10   10   11       1
    11   10   12       1
    12   11   16       1
    13   12   13       1
    14   12   14       1
    15   14   15       2
    16   14   16       1
    17   16   17       1
    18   17   18       1
    19   17   26       1
    20   18   19       2
    21   19   20       1
    22   20   21      ar
    23   20   26      ar
    24   21   22       1
    25   21   23      ar
    26   23   24      ar
    27   24   25      ar
    28   25   26      ar
    29   24   40       1
    30    3   27       1
    31    3   28       1
    32    4   29       1
    33    4   30       1
    34    1   41       1
    35    9   31       1
    36    9   32       1
    37   10   33       1
    38   12   34       1
    39   13   35       1
    40   16   36       1
    41   18   37       1
    42   22   38       1
    43   22   39       1
@<TRIPOS>SUBSTRUCTURE
     1 SAH501      1 GROUP             4 A     SAH     0 **** SAH A 501
