@<TRIPOS>MOLECULE
1og6_NAP_1_ligand
   73    77     1     0     0
SMALL
NO_CHARGES


@<TRIPOS>ATOM
     1 PA           6.0980    66.9650    24.3840 P.3          1 NAP1298   0.0000
     2 O1A          4.8650    66.7170    23.7530 O.co2        1 NAP1298   0.0000
     3 O2A          6.3570    66.8680    25.8710 O.co2        1 NAP1298  -1.0000
     4 O5B          6.6210    68.4260    23.9720 O.3          1 NAP1298   0.0000
     5 C5B          5.7550    69.5450    24.2410 C.3          1 NAP1298   0.0000
     6 C4B          6.1260    70.6160    23.1490 C.3          1 NAP1298   0.0000
     7 O4B          5.1830    71.7020    23.4940 O.3          1 NAP1298   0.0000
     8 C3B          7.5170    71.2600    23.3220 C.3          1 NAP1298   0.0000
     9 O3B          7.9670    71.4750    21.9860 O.3          1 NAP1298   0.0000
    10 C2B          7.3090    72.5690    24.0720 C.3          1 NAP1298   0.0000
    11 O2B          8.1200    73.6660    23.6300 O.3          1 NAP1298   0.0000
    12 C1B          5.7860    72.9030    23.9010 C.3          1 NAP1298   0.0000
    13 N9A          5.2040    73.2960    25.1760 N.pl3        1 NAP1298   0.0000
    14 C8A          5.4410    72.8440    26.4660 C.2          1 NAP1298   0.0000
    15 N7A          4.7120    73.4290    27.3960 N.2          1 NAP1298   0.0000
    16 C5A          3.9410    74.3280    26.6590 C.ar         1 NAP1298   0.0000
    17 C6A          2.9630    75.2420    27.0900 C.ar         1 NAP1298   0.0000
    18 N6A          2.5490    75.4490    28.3580 N.pl3        1 NAP1298   0.0000
    19 N1A          2.3430    76.0290    26.1020 N.ar         1 NAP1298   0.0000
    20 C2A          2.6910    75.9030    24.7440 C.ar         1 NAP1298   0.0000
    21 N3A          3.6500    75.0120    24.2900 N.ar         1 NAP1298   0.0000
    22 C4A          4.2490    74.2460    25.2840 C.ar         1 NAP1298   0.0000
    23 O3           7.2080    66.0260    23.7290 O.3          1 NAP1298   0.0000
    24 PN           8.2660    66.2960    22.5820 P.3          1 NAP1298   0.0000
    25 O1N          8.0530    65.8460    21.2090 O.co2        1 NAP1298   0.0000
    26 O2N          9.6110    66.6090    23.1440 O.co2        1 NAP1298  -1.0000
    27 O5D          8.6100    64.7160    22.7130 O.3          1 NAP1298   0.0000
    28 C5D          8.8120    64.0190    24.0010 C.3          1 NAP1298   0.0000
    29 C4D         10.1700    63.3300    24.0820 C.3          1 NAP1298   0.0000
    30 O4D         10.1710    61.9570    23.6150 O.3          1 NAP1298   0.0000
    31 C3D         11.3970    64.0280    23.3920 C.3          1 NAP1298   0.0000
    32 O3D         12.1890    64.7510    24.3420 O.3          1 NAP1298   0.0000
    33 C2D         12.1840    62.9200    22.7070 C.3          1 NAP1298   0.0000
    34 O2D         13.4460    62.6970    23.2910 O.3          1 NAP1298   0.0000
    35 C1D         11.3510    61.6850    22.7960 C.3          1 NAP1298   0.0000
    36 N1N         10.8950    61.0760    21.4880 N.ar         1 NAP1298   1.0000
    37 C2N         10.9150    59.6630    21.2510 C.ar         1 NAP1298   0.0000
    38 C3N         10.5020    59.1900    19.9890 C.ar         1 NAP1298   0.0000
    39 C7N         10.5070    57.6750    19.6940 C.2          1 NAP1298   0.0000
    40 O7N         10.1460    57.3430    18.5900 O.2          1 NAP1298   0.0000
    41 N7N         10.8800    56.7980    20.5860 N.am         1 NAP1298   0.0000
    42 C4N         10.0630    60.1160    18.9360 C.ar         1 NAP1298   0.0000
    43 C5N         10.0540    61.5060    19.2200 C.ar         1 NAP1298   0.0000
    44 C6N         10.4650    62.0090    20.4870 C.ar         1 NAP1298   0.0000
    45 P2B          8.5750    74.8930    24.6040 P.3          1 NAP1298   0.0000
    46 O1X          9.1160    74.7670    26.0240 O.co2        1 NAP1298   0.0000
    47 O2X          8.8580    76.1270    23.7830 O.co2        1 NAP1298  -1.0000
    48 O3X          9.9280    74.3050    24.2560 O.co2        1 NAP1298  -1.0000
    49 H5B1         5.9213    69.9060    25.1586 H            1 NAP1298   0.0000
    50 H5B2         4.7956    69.2754    24.1577 H            1 NAP1298   0.0000
    51 H4B          5.9824    70.2730    22.2207 H            1 NAP1298   0.0000
    52 H3B          8.1371    70.6531    23.8191 H            1 NAP1298   0.0000
    53 H5           8.8742    71.8954    22.0034 H            1 NAP1298   0.0000
    54 H2B          7.4917    72.4107    25.0423 H            1 NAP1298   0.0000
    55 H1B          5.6537    73.6178    23.2143 H            1 NAP1298   0.0000
    56 H8A          6.1111    72.1315    26.6739 H            1 NAP1298   0.0000
    57 H6A1         1.8419    76.1300    28.5482 H            1 NAP1298   0.0000
    58 H6A2         2.9494    74.9214    29.1072 H            1 NAP1298   0.0000
    59 H2A          2.2247    76.4832    24.0762 H            1 NAP1298   0.0000
    60 H5D1         8.0953    63.3301    24.1093 H            1 NAP1298   0.0000
    61 H5D2         8.7463    64.6876    24.7418 H            1 NAP1298   0.0000
    62 H4D         10.3946    63.2860    25.0555 H            1 NAP1298   0.0000
    63 H3D         11.0607    64.6645    22.6979 H            1 NAP1298   0.0000
    64 H16         11.8506    65.6893    24.4127 H            1 NAP1298   0.0000
    65 H2D         12.3094    63.1584    21.7440 H            1 NAP1298   0.0000
    66 H18         13.4985    61.7547    23.6216 H            1 NAP1298   0.0000
    67 H1D         11.8928    60.9937    23.2740 H            1 NAP1298   0.0000
    68 H2N         11.2145    59.0282    21.9632 H            1 NAP1298   0.0000
    69 H7N1        10.8716    55.8233    20.3628 H            1 NAP1298   0.0000
    70 H7N2        11.1741    57.1009    21.4925 H            1 NAP1298   0.0000
    71 H4N          9.7774    59.7746    18.0405 H            1 NAP1298   0.0000
    72 H5N          9.7521    62.1470    18.5143 H            1 NAP1298   0.0000
    73 H6N         10.4541    62.9911    20.6749 H            1 NAP1298   0.0000
@<TRIPOS>BOND
     1    1    2      ar
     2    1    3      ar
     3    1    4       1
     4    1   23       1
     5    4    5       1
     6    5    6       1
     7    6    7       1
     8    6    8       1
     9    7   12       1
    10    8    9       1
    11    8   10       1
    12   10   11       1
    13   10   12       1
    14   11   45       1
    15   12   13       1
    16   13   14       1
    17   13   22       1
    18   14   15       2
    19   15   16       1
    20   16   17      ar
    21   16   22      ar
    22   17   18       1
    23   17   19      ar
    24   19   20      ar
    25   20   21      ar
    26   21   22      ar
    27   23   24       1
    28   24   25      ar
    29   24   26      ar
    30   24   27       1
    31   27   28       1
    32   28   29       1
    33   29   30       1
    34   29   31       1
    35   30   35       1
    36   31   32       1
    37   31   33       1
    38   33   34       1
    39   33   35       1
    40   35   36       1
    41   36   37      ar
    42   36   44      ar
    43   37   38      ar
    44   38   39       1
    45   38   42      ar
    46   39   40       2
    47   39   41      am
    48   42   43      ar
    49   43   44      ar
    50   45   46      ar
    51   45   47      ar
    52   45   48      ar
    53   43   72       1
    54    5   49       1
    55    5   50       1
    56    6   51       1
    57    8   52       1
    58    9   53       1
    59   10   54       1
    60   12   55       1
    61   14   56       1
    62   18   57       1
    63   18   58       1
    64   20   59       1
    65   44   73       1
    66   28   60       1
    67   28   61       1
    68   29   62       1
    69   31   63       1
    70   32   64       1
    71   33   65       1
    72   34   66       1
    73   35   67       1
    74   37   68       1
    75   41   69       1
    76   41   70       1
    77   42   71       1
@<TRIPOS>SUBSTRUCTURE
     1 NAP1298     1 GROUP             4 A     NAP     0 **** NAP A1298
