@<TRIPOS>MOLECULE
3e4e_4PZ_1_ligand
   12    12     1     0     0
SMALL
NO_CHARGES


@<TRIPOS>ATOM
     1 C3          40.0410    29.6640     8.5890 C.2          1 4PZ501   0.0000
     2 N2          38.8030    29.9670     8.0960 N.2          1 4PZ501   0.0000
     3 N1          37.9980    30.3680     9.2030 N.pl3        1 4PZ501   0.0000
     4 C4          39.9390    29.8900     9.9320 C.2          1 4PZ501   0.0000
     5 C19         41.0910    29.6620    10.8490 C.3          1 4PZ501   0.0000
     6 C5          38.7080    30.3260    10.3570 C.2          1 4PZ501   0.0000
     7 H1          40.8419    29.3478     8.0805 H            1 4PZ501   0.0000
     8 H2          40.8199    29.8823    11.7860 H            1 4PZ501   0.0000
     9 H3          41.3716    28.7034    10.7998 H            1 4PZ501   0.0000
    10 H4          41.8547    30.2473    10.5767 H            1 4PZ501   0.0000
    11 H5          38.4105    30.5548    11.2839 H            1 4PZ501   0.0000
    12 H6          37.0389    30.6431     9.1368 H            1 4PZ501   0.0000
@<TRIPOS>BOND
     1    1    2       2
     2    1    4       1
     3    2    3       1
     4    3    6       1
     5    4    5       1
     6    4    6       2
     7    1    7       1
     8    6   11       1
     9    5    8       1
    10    5    9       1
    11    5   10       1
    12    3   12       1
@<TRIPOS>SUBSTRUCTURE
     1 4PZ501      1 GROUP             4 A     4PZ     0 **** 4PZ A 501
