@<TRIPOS>MOLECULE
4e96_0NS_1_ligand
   41    43     1     0     0
SMALL
NO_CHARGES


@<TRIPOS>ATOM
     1 CAX         27.3250    13.8220    -6.1070 C.3          1 0NS201   0.0000
     2 OAW         26.5780    14.0800    -4.8550 O.3          1 0NS201   0.0000
     3 CAE         26.2290    15.3730    -4.5680 C.ar         1 0NS201   0.0000
     4 CAF         26.5080    16.3920    -5.4780 C.ar         1 0NS201   0.0000
     5 CAA         26.1180    17.7040    -5.1820 C.ar         1 0NS201   0.0000
     6 CAB         25.4880    18.0280    -4.0040 C.ar         1 0NS201   0.0000
     7 CAC         25.2320    17.0330    -3.0790 C.ar         1 0NS201   0.0000
     8 CAD         25.5520    15.7140    -3.3800 C.ar         1 0NS201   0.0000
     9 SAT         25.2120    14.4980    -2.1690 S.o2         1 0NS201   0.0000
    10 OAU         24.4250    13.3740    -2.7560 O.2          1 0NS201   0.0000
    11 OAV         24.5590    15.1630    -1.0130 O.2          1 0NS201   0.0000
    12 NAG         26.7170    13.9770    -1.7620 N.pl3        1 0NS201   0.0000
    13 CAH         27.7490    14.8060    -1.4870 C.ar         1 0NS201   0.0000
    14 CAM         27.6820    15.7430    -0.4450 C.ar         1 0NS201   0.0000
    15 CAL         28.7760    16.5630    -0.1280 C.ar         1 0NS201   0.0000
    16 CAQ         28.5820    17.5480     1.0110 C.3          1 0NS201   0.0000
    17 NAP         29.7430    18.4570     1.1770 N.am         1 0NS201   0.0000
    18 CAS         29.6700    19.5550     2.1940 C.3          1 0NS201   0.0000
    19 CAO         30.9100    18.3040     0.4400 C.2          1 0NS201   0.0000
    20 OAR         31.7930    19.1210     0.6420 O.2          1 0NS201   0.0000
    21 NAN         31.0500    17.2970    -0.5700 N.am         1 0NS201   0.0000
    22 CAK         29.9530    16.4520    -0.8690 C.ar         1 0NS201   0.0000
    23 CAJ         30.0230    15.5360    -1.9290 C.ar         1 0NS201   0.0000
    24 CAI         28.9400    14.7020    -2.2170 C.ar         1 0NS201   0.0000
    25 HAX1        27.5119    12.8430    -6.1879 H            1 0NS201   0.0000
    26 HAX2        26.7790    14.1229    -6.8889 H            1 0NS201   0.0000
    27 HAX3        28.1886    14.3259    -6.0898 H            1 0NS201   0.0000
    28 HAF         26.9823    16.1877    -6.3343 H            1 0NS201   0.0000
    29 HAA         26.3034    18.4269    -5.8476 H            1 0NS201   0.0000
    30 HAB         25.2179    18.9727    -3.8182 H            1 0NS201   0.0000
    31 HAC         24.8186    17.2610    -2.1975 H            1 0NS201   0.0000
    32 HAG         26.8784    12.9912    -1.7152 H            1 0NS201   0.0000
    33 HAM         26.8370    15.8284     0.0829 H            1 0NS201   0.0000
    34 HAQ1        28.4514    17.0357     1.8598 H            1 0NS201   0.0000
    35 HAQ2        27.7677    18.0978     0.8248 H            1 0NS201   0.0000
    36 HAS1        30.5238    20.0755     2.1845 H            1 0NS201   0.0000
    37 HAS2        28.9067    20.1626     1.9743 H            1 0NS201   0.0000
    38 HAS3        29.5307    19.1597     3.1019 H            1 0NS201   0.0000
    39 HAN         31.9154    17.1916    -1.0599 H            1 0NS201   0.0000
    40 HAJ         30.8540    15.4796    -2.4824 H            1 0NS201   0.0000
    41 HAI         29.0155    14.0257    -2.9497 H            1 0NS201   0.0000
@<TRIPOS>BOND
     1    1    2       1
     2    2    3       1
     3    3    4      ar
     4    3    8      ar
     5    4    5      ar
     6    5    6      ar
     7    6    7      ar
     8    7    8      ar
     9    8    9       1
    10    9   10       2
    11    9   11       2
    12    9   12       1
    13   12   13       1
    14   13   14      ar
    15   13   24      ar
    16   14   15      ar
    17   15   16       1
    18   15   22      ar
    19   16   17       1
    20   17   18       1
    21   17   19      am
    22   19   20       2
    23   19   21      am
    24   21   22       1
    25   22   23      ar
    26   23   24      ar
    27    1   25       1
    28    1   26       1
    29    1   27       1
    30    4   28       1
    31    5   29       1
    32    6   30       1
    33    7   31       1
    34   12   32       1
    35   14   33       1
    36   16   34       1
    37   16   35       1
    38   18   36       1
    39   18   37       1
    40   18   38       1
    41   21   39       1
    42   23   40       1
    43   24   41       1
@<TRIPOS>SUBSTRUCTURE
     1 0NS201      1 GROUP             4 A     0NS     0 **** 0NS A 201
