@<TRIPOS>MOLECULE
4qxq_1YE_1_ligand
   34    36     1     0     0
SMALL
NO_CHARGES


@<TRIPOS>ATOM
     1 OAD        162.9910    49.0380     5.5650 O.2          1 1YE401   0.0000
     2 CAQ        163.9510    49.6930     5.1370 C.2          1 1YE401   0.0000
     3 CAS        165.0120    50.0820     5.9480 C.ar         1 1YE401   0.0000
     4 CAJ        165.0240    49.7980     7.3060 C.ar         1 1YE401   0.0000
     5 CAH        166.1300    50.1710     8.0710 C.ar         1 1YE401   0.0000
     6 CAN        167.2370    50.8420     7.4990 C.ar         1 1YE401   0.0000
     7 CAA        168.3860    51.2460     8.2850 C.3          1 1YE401   0.0000
     8 CAO        167.2000    51.1630     6.1350 C.ar         1 1YE401   0.0000
     9 CAB        168.2480    51.8690     5.4870 C.3          1 1YE401   0.0000
    10 CAT        166.0560    50.8210     5.4260 C.ar         1 1YE401   0.0000
    11 OAL        166.0980    51.0930     4.1160 O.2          1 1YE401   0.0000
    12 CAU        165.1250    50.6610     3.2800 C.ar         1 1YE401   0.0000
    13 CAR        164.0300    49.9890     3.7870 C.ar         1 1YE401   0.0000
    14 CAI        163.0500    49.5420     2.8930 C.ar         1 1YE401   0.0000
    15 CAF        163.1480    49.8310     1.5330 C.ar         1 1YE401   0.0000
    16 CAG        164.2570    50.5330     1.0420 C.ar         1 1YE401   0.0000
    17 CAP        165.2500    50.9930     1.9250 C.ar         1 1YE401   0.0000
    18 CAK        166.3860    51.7240     1.4620 C.3          1 1YE401   0.0000
    19 CAM        167.7890    51.1310     1.7520 C.2          1 1YE401   0.0000
    20 OAE        167.8930    49.9350     2.1480 O.co2        1 1YE401   0.0000
    21 OAC        168.7310    51.9310     1.5520 O.co2        1 1YE401  -1.0000
    22 HAJ        164.2489    49.3313     7.7318 H            1 1YE401   0.0000
    23 HAH        166.1406    49.9588     9.0482 H            1 1YE401   0.0000
    24 HAA1       169.0510    51.7017     7.6933 H            1 1YE401   0.0000
    25 HAA2       168.0930    51.8760     9.0042 H            1 1YE401   0.0000
    26 HAA3       168.8066    50.4391     8.6997 H            1 1YE401   0.0000
    27 HAB1       168.0199    51.9915     4.5211 H            1 1YE401   0.0000
    28 HAB2       168.3635    52.7638     5.9183 H            1 1YE401   0.0000
    29 HAB3       169.0985    51.3489     5.5653 H            1 1YE401   0.0000
    30 HAI        162.2736    49.0112     3.2327 H            1 1YE401   0.0000
    31 HAF        162.4259    49.5370     0.9068 H            1 1YE401   0.0000
    32 HAG        164.3424    50.7073     0.0610 H            1 1YE401   0.0000
    33 HAK1       166.3511    52.6298     1.8842 H            1 1YE401   0.0000
    34 HAK2       166.2990    51.8150     0.4700 H            1 1YE401   0.0000
@<TRIPOS>BOND
     1    1    2       2
     2    2    3       1
     3    2   13       1
     4    3    4      ar
     5    3   10      ar
     6    4    5      ar
     7    5    6      ar
     8    6    7       1
     9    6    8      ar
    10    8    9       1
    11    8   10      ar
    12   10   11       1
    13   11   12       1
    14   12   13      ar
    15   12   17      ar
    16   13   14      ar
    17   14   15      ar
    18   15   16      ar
    19   16   17      ar
    20   17   18       1
    21   18   19       1
    22   19   20      ar
    23   19   21      ar
    24    4   22       1
    25    5   23       1
    26    7   24       1
    27    7   25       1
    28    7   26       1
    29    9   27       1
    30    9   28       1
    31    9   29       1
    32   14   30       1
    33   15   31       1
    34   16   32       1
    35   18   33       1
    36   18   34       1
@<TRIPOS>SUBSTRUCTURE
     1 1YE401      1 GROUP             4 A     1YE     0 **** 1YE A 401
