@<TRIPOS>MOLECULE
3vet_ADP_1_ligand
   39    41     1     0     0
SMALL
NO_CHARGES


@<TRIPOS>ATOM
     1 PB          12.9090    28.6520    13.6310 P.3          1 ADP603   0.0000
     2 O1B         12.4860    28.8120    12.2010 O.co2        1 ADP603   0.0000
     3 O2B         13.1490    27.2160    14.0340 O.co2        1 ADP603  -1.0000
     4 O3B         12.0550    29.3960    14.6320 O.co2        1 ADP603  -1.0000
     5 PA          14.8370    30.8310    13.4320 P.3          1 ADP603   0.0000
     6 O1A         13.7150    31.8290    13.6090 O.co2        1 ADP603   0.0000
     7 O2A         16.1450    31.0200    14.1460 O.co2        1 ADP603  -1.0000
     8 O3A         14.3790    29.3170    13.7430 O.3          1 ADP603   0.0000
     9 O5'         15.1970    30.7920    11.8700 O.3          1 ADP603   0.0000
    10 C5'         15.7220    29.6060    11.2870 C.3          1 ADP603   0.0000
    11 C4'         15.8770    29.8690     9.8000 C.3          1 ADP603   0.0000
    12 O4'         16.6920    31.0250     9.5760 O.3          1 ADP603   0.0000
    13 C3'         16.5460    28.7130     9.0730 C.3          1 ADP603   0.0000
    14 O3'         15.5580    28.0620     8.2630 O.3          1 ADP603   0.0000
    15 C2'         17.6120    29.3810     8.2180 C.3          1 ADP603   0.0000
    16 O2'         17.6330    28.8990     6.8620 O.3          1 ADP603   0.0000
    17 C1'         17.2300    30.8590     8.2800 C.3          1 ADP603   0.0000
    18 N9          18.4300    31.6730     8.0380 N.pl3        1 ADP603   0.0000
    19 C8          19.4610    31.8700     8.8790 C.2          1 ADP603   0.0000
    20 N7          20.4080    32.6450     8.2920 N.2          1 ADP603   0.0000
    21 C5          19.9760    32.9470     7.0550 C.ar         1 ADP603   0.0000
    22 C6          20.4900    33.7260     5.9090 C.ar         1 ADP603   0.0000
    23 N6          21.6890    34.3550     5.9730 N.pl3        1 ADP603   0.0000
    24 N1          19.7160    33.7820     4.8060 N.ar         1 ADP603   0.0000
    25 C2          18.5210    33.1620     4.7280 C.ar         1 ADP603   0.0000
    26 N3          17.9960    32.4290     5.7220 N.ar         1 ADP603   0.0000
    27 C4          18.6740    32.2960     6.8900 C.ar         1 ADP603   0.0000
    28 H5'1        15.0931    28.8431    11.4365 H            1 ADP603   0.0000
    29 H5'2        16.6106    29.3896    11.6913 H            1 ADP603   0.0000
    30 H4'         14.9735    30.0253     9.4011 H            1 ADP603   0.0000
    31 H3'         16.9567    28.0719     9.7213 H            1 ADP603   0.0000
    32 H5          15.7858    27.0923     8.1743 H            1 ADP603   0.0000
    33 H2'         18.5106    29.2480     8.6362 H            1 ADP603   0.0000
    34 H7          16.7121    28.6149     6.5949 H            1 ADP603   0.0000
    35 H1'         16.5338    31.0620     7.5915 H            1 ADP603   0.0000
    36 H9          19.5212    31.4982     9.8054 H            1 ADP603   0.0000
    37 H10         22.0218    34.8779     5.1883 H            1 ADP603   0.0000
    38 H11         22.2407    34.2961     6.8049 H            1 ADP603   0.0000
    39 H12         17.9964    33.2536     3.8816 H            1 ADP603   0.0000
@<TRIPOS>BOND
     1    1    2      ar
     2    1    3      ar
     3    1    4      ar
     4    1    8       1
     5    5    6      ar
     6    5    7      ar
     7    5    8       1
     8    5    9       1
     9    9   10       1
    10   10   11       1
    11   11   12       1
    12   11   13       1
    13   12   17       1
    14   13   14       1
    15   13   15       1
    16   15   16       1
    17   15   17       1
    18   17   18       1
    19   18   19       1
    20   18   27       1
    21   19   20       2
    22   20   21       1
    23   21   22      ar
    24   21   27      ar
    25   22   23       1
    26   22   24      ar
    27   24   25      ar
    28   25   26      ar
    29   26   27      ar
    30   25   39       1
    31   23   38       1
    32   23   37       1
    33   10   28       1
    34   10   29       1
    35   11   30       1
    36   13   31       1
    37   14   32       1
    38   15   33       1
    39   16   34       1
    40   17   35       1
    41   19   36       1
@<TRIPOS>SUBSTRUCTURE
     1 ADP603      1 GROUP             4 A     ADP     0 **** ADP A 603
