@<TRIPOS>MOLECULE
2b99_RDL_2_ligand
   37    38     1     0     0
SMALL
NO_CHARGES


@<TRIPOS>ATOM
     1 O15        -16.3300     7.8840   -17.9520 O.3          1 RDL1208   0.0000
     2 C15        -15.7670     7.2830   -19.1200 C.3          1 RDL1208   0.0000
     3 C14        -15.0240     5.9710   -18.7680 C.3          1 RDL1208   0.0000
     4 O14        -14.0490     6.2240   -17.7340 O.3          1 RDL1208   0.0000
     5 C13        -15.9820     4.8980   -18.2610 C.3          1 RDL1208   0.0000
     6 O13        -16.9610     4.6470   -19.2930 O.3          1 RDL1208   0.0000
     7 C12        -15.3060     3.5590   -17.8810 C.3          1 RDL1208   0.0000
     8 O12        -16.2750     2.6340   -17.3990 O.3          1 RDL1208   0.0000
     9 C11        -14.6640     2.8450   -19.0400 C.3          1 RDL1208   0.0000
    10 N9         -13.2870     2.3340   -18.9250 N.pl3        1 RDL1208   0.0000
    11 C8         -13.0170     1.3340   -18.0250 C.2          1 RDL1208   0.0000
    12 O8         -13.9020     0.8400   -17.2940 O.2          1 RDL1208   0.0000
    13 C7         -11.6130     0.8150   -17.9090 C.2          1 RDL1208   0.0000
    14 O7         -11.3560    -0.1070   -17.0820 O.2          1 RDL1208   0.0000
    15 C10        -12.3090     2.8720   -19.7280 C.2          1 RDL1208   0.0000
    16 C5         -10.9370     2.3440   -19.5890 C.2          1 RDL1208   0.0000
    17 N6         -10.6510     1.3460   -18.6920 N.pl3        1 RDL1208   0.0000
    18 C4          -9.9130     2.9290   -20.4410 C.2          1 RDL1208   0.0000
    19 O4          -8.7320     2.5140   -20.3530 O.2          1 RDL1208   0.0000
    20 N3         -10.2680     3.9160   -21.3150 N.pl3        1 RDL1208   0.0000
    21 C2         -11.5620     4.3720   -21.4120 C.2          1 RDL1208   0.0000
    22 N1         -12.5340     3.8670   -20.6450 N.pl3        1 RDL1208   0.0000
    23 O2         -11.8260     5.2630   -22.2270 O.2          1 RDL1208   0.0000
    24 H1         -16.1196     7.3208   -17.1529 H            1 RDL1208   0.0000
    25 H2         -15.1212     7.9223   -19.5374 H            1 RDL1208   0.0000
    26 H3         -16.5005     7.0792   -19.7684 H            1 RDL1208   0.0000
    27 H4         -14.5552     5.6318   -19.5836 H            1 RDL1208   0.0000
    28 H5         -14.4719     6.0919   -16.8375 H            1 RDL1208   0.0000
    29 H6         -16.4560     5.2527   -17.4551 H            1 RDL1208   0.0000
    30 H7         -17.6012     3.9448   -18.9814 H            1 RDL1208   0.0000
    31 H8         -14.6210     3.7225   -17.1710 H            1 RDL1208   0.0000
    32 H9         -15.8243     1.7746   -17.1577 H            1 RDL1208   0.0000
    33 H10        -14.6709     3.4826   -19.8103 H            1 RDL1208   0.0000
    34 H11        -15.2456     2.0597   -19.2521 H            1 RDL1208   0.0000
    35 H12         -9.7134     1.0063   -18.6172 H            1 RDL1208   0.0000
    36 H13         -9.5662     4.3194   -21.9022 H            1 RDL1208   0.0000
    37 H14        -13.4610     4.2288   -20.7438 H            1 RDL1208   0.0000
@<TRIPOS>BOND
     1    1    2       1
     2    2    3       1
     3    3    4       1
     4    3    5       1
     5    5    6       1
     6    5    7       1
     7    7    8       1
     8    7    9       1
     9    9   10       1
    10   10   11       1
    11   10   15       1
    12   11   12       2
    13   11   13       1
    14   13   14       2
    15   13   17       1
    16   15   16       2
    17   15   22       1
    18   16   17       1
    19   16   18       1
    20   18   19       2
    21   18   20       1
    22   20   21       1
    23   21   22       1
    24   21   23       2
    25    1   24       1
    26    2   25       1
    27    2   26       1
    28    3   27       1
    29    4   28       1
    30    5   29       1
    31    6   30       1
    32    7   31       1
    33    8   32       1
    34    9   33       1
    35    9   34       1
    36   17   35       1
    37   20   36       1
    38   22   37       1
@<TRIPOS>SUBSTRUCTURE
     1 RDL1208     1 GROUP             4 A     RDL     0 **** RDL A1208
