@<TRIPOS>MOLECULE
3ust_FAD_1_ligand
   84    89     1     0     0
SMALL
NO_CHARGES


@<TRIPOS>ATOM
     1 PA         -11.9250    32.3850    49.1020 P.3          1 FAD266   0.0000
     2 O1A        -11.4720    30.9420    49.3310 O.co2        1 FAD266   0.0000
     3 O2A        -11.3020    32.9220    47.8760 O.co2        1 FAD266  -1.0000
     4 O5B        -11.5500    33.3940    50.2870 O.3          1 FAD266   0.0000
     5 C5B        -10.6890    33.1260    51.3590 C.3          1 FAD266   0.0000
     6 C4B         -9.9850    34.4030    51.8450 C.3          1 FAD266   0.0000
     7 O4B         -9.2490    34.9610    50.7860 O.3          1 FAD266   0.0000
     8 C3B        -10.8570    35.5290    52.3740 C.3          1 FAD266   0.0000
     9 O3B        -10.1860    36.0470    53.5110 O.3          1 FAD266   0.0000
    10 C2B        -10.7880    36.6140    51.3220 C.3          1 FAD266   0.0000
    11 O2B        -10.7560    37.8690    51.9470 O.3          1 FAD266   0.0000
    12 C1B         -9.4350    36.3700    50.6730 C.3          1 FAD266   0.0000
    13 N9A         -9.3080    36.7140    49.2390 N.pl3        1 FAD266   0.0000
    14 C8A        -10.2940    36.7900    48.2870 C.2          1 FAD266   0.0000
    15 N7A         -9.7200    37.0770    47.0810 N.2          1 FAD266   0.0000
    16 C5A         -8.3830    37.1920    47.2570 C.ar         1 FAD266   0.0000
    17 C6A         -7.3260    37.4700    46.3880 C.ar         1 FAD266   0.0000
    18 N6A         -7.5210    37.5900    45.0730 N.pl3        1 FAD266   0.0000
    19 N1A         -6.0370    37.4890    46.8820 N.ar         1 FAD266   0.0000
    20 C2A         -5.7960    37.2580    48.2120 C.ar         1 FAD266   0.0000
    21 N3A         -6.8350    36.9770    49.0650 N.ar         1 FAD266   0.0000
    22 C4A         -8.1150    36.9450    48.5980 C.ar         1 FAD266   0.0000
    23 N1         -13.2620    26.4610    43.0460 N.2          1 FAD266   0.0000
    24 C2         -14.0760    26.2000    41.9650 C.2          1 FAD266   0.0000
    25 O2         -15.2830    26.2590    42.0810 O.2          1 FAD266   0.0000
    26 N3         -13.5470    25.8490    40.7380 N.pl3        1 FAD266   0.0000
    27 C4         -12.2050    25.7760    40.5440 C.2          1 FAD266   0.0000
    28 O4         -11.8220    25.4620    39.4020 O.2          1 FAD266   0.0000
    29 C4X        -11.3570    26.0320    41.6320 C.2          1 FAD266   0.0000
    30 N5          -9.9730    25.9350    41.5170 N.2          1 FAD266   0.0000
    31 C5X         -9.1580    26.2030    42.6100 C.ar         1 FAD266   0.0000
    32 C6          -7.7770    26.1370    42.4610 C.ar         1 FAD266   0.0000
    33 C7          -6.9380    26.4220    43.5380 C.ar         1 FAD266   0.0000
    34 C7M         -5.4320    26.3200    43.3570 C.3          1 FAD266   0.0000
    35 C8          -7.5040    26.7560    44.7880 C.ar         1 FAD266   0.0000
    36 C8M         -6.6350    27.0250    45.9840 C.3          1 FAD266   0.0000
    37 C9          -8.8930    26.8280    44.9360 C.ar         1 FAD266   0.0000
    38 C9A         -9.7230    26.5610    43.8350 C.ar         1 FAD266   0.0000
    39 N10        -11.1050    26.6450    43.9620 N.pl3        1 FAD266   0.0000
    40 C10        -11.9070    26.3770    42.8820 C.2          1 FAD266   0.0000
    41 C1'        -11.7210    27.2080    45.2250 C.3          1 FAD266   0.0000
    42 C2'        -12.1640    28.6670    45.1330 C.3          1 FAD266   0.0000
    43 O2'        -11.0930    29.4800    44.6640 O.3          1 FAD266   0.0000
    44 C3'        -12.6300    29.1990    46.4910 C.3          1 FAD266   0.0000
    45 O3'        -11.5600    29.1870    47.3870 O.3          1 FAD266   0.0000
    46 C4'        -13.7720    28.4130    47.1230 C.3          1 FAD266   0.0000
    47 O4'        -14.8480    28.4260    46.2090 O.3          1 FAD266   0.0000
    48 C5'        -14.2400    29.0250    48.4480 C.3          1 FAD266   0.0000
    49 O5'        -14.6150    30.3610    48.2090 O.3          1 FAD266   0.0000
    50 P          -14.6670    31.4840    49.3560 P.3          1 FAD266   0.0000
    51 O1P        -15.9350    32.2810    49.1800 O.co2        1 FAD266   0.0000
    52 O2P        -14.6400    30.8280    50.7230 O.co2        1 FAD266  -1.0000
    53 O3P        -13.5050    32.5350    49.0160 O.3          1 FAD266   0.0000
    54 H5B1        -9.9983    32.4656    51.0644 H            1 FAD266   0.0000
    55 H5B2       -11.2193    32.7395    52.1136 H            1 FAD266   0.0000
    56 H4B         -9.3418    34.1456    52.5662 H            1 FAD266   0.0000
    57 H3B        -11.7927    35.2373    52.5726 H            1 FAD266   0.0000
    58 H5          -9.2850    36.3861    53.2405 H            1 FAD266   0.0000
    59 H2B        -11.5368    36.5437    50.6629 H            1 FAD266   0.0000
    60 H7          -9.9518    37.9264    52.5386 H            1 FAD266   0.0000
    61 H1B         -8.7247    36.8433    51.1940 H            1 FAD266   0.0000
    62 H8A        -11.2717    36.6571    48.4495 H            1 FAD266   0.0000
    63 H6A1        -6.7492    37.7894    44.4692 H            1 FAD266   0.0000
    64 H6A2        -8.4389    37.4805    44.6916 H            1 FAD266   0.0000
    65 H2A         -4.8600    37.2943    48.5622 H            1 FAD266   0.0000
    66 H13        -14.1642    25.6448    39.9782 H            1 FAD266   0.0000
    67 H14         -7.3835    25.8839    41.5772 H            1 FAD266   0.0000
    68 H7M1        -4.9764    26.5543    44.2158 H            1 FAD266   0.0000
    69 H7M2        -5.1902    25.3856    43.0955 H            1 FAD266   0.0000
    70 H7M3        -5.1387    26.9531    42.6406 H            1 FAD266   0.0000
    71 H8M1        -7.2107    27.2434    46.7720 H            1 FAD266   0.0000
    72 H8M2        -6.0864    26.2139    46.1866 H            1 FAD266   0.0000
    73 H8M3        -6.0296    27.7968    45.7894 H            1 FAD266   0.0000
    74 H21         -9.2927    27.0682    45.8206 H            1 FAD266   0.0000
    75 H1'1       -11.0456    27.1347    45.9588 H            1 FAD266   0.0000
    76 H1'2       -12.5221    26.6544    45.4527 H            1 FAD266   0.0000
    77 H2'        -12.9232    28.7316    44.4854 H            1 FAD266   0.0000
    78 H25        -11.3962    30.4313    44.6086 H            1 FAD266   0.0000
    79 H3'        -12.9289    30.1458    46.3715 H            1 FAD266   0.0000
    80 H27        -11.6738    29.9251    48.0520 H            1 FAD266   0.0000
    81 H4'        -13.4796    27.4694    47.2781 H            1 FAD266   0.0000
    82 H29        -14.7760    27.6376    45.5981 H            1 FAD266   0.0000
    83 H5'1       -13.4957    28.9968    49.1152 H            1 FAD266   0.0000
    84 H5'2       -15.0228    28.5117    48.7999 H            1 FAD266   0.0000
@<TRIPOS>BOND
     1    1    2      ar
     2    1    3      ar
     3    1    4       1
     4    1   53       1
     5    4    5       1
     6    5    6       1
     7    6    7       1
     8    6    8       1
     9    7   12       1
    10    8    9       1
    11    8   10       1
    12   10   11       1
    13   10   12       1
    14   12   13       1
    15   13   14       1
    16   13   22       1
    17   14   15       2
    18   15   16       1
    19   16   17      ar
    20   16   22      ar
    21   17   18       1
    22   17   19      ar
    23   19   20      ar
    24   20   21      ar
    25   21   22      ar
    26   23   24       1
    27   23   40       2
    28   24   25       2
    29   24   26       1
    30   26   27       1
    31   27   28       2
    32   27   29       1
    33   29   30       2
    34   29   40       1
    35   30   31       1
    36   31   32      ar
    37   31   38      ar
    38   32   33      ar
    39   33   34       1
    40   33   35      ar
    41   35   36       1
    42   35   37      ar
    43   37   38      ar
    44   38   39       1
    45   39   40       1
    46   39   41       1
    47   41   42       1
    48   42   43       1
    49   42   44       1
    50   44   45       1
    51   44   46       1
    52   46   47       1
    53   46   48       1
    54   48   49       1
    55   49   50       1
    56   50   51      ar
    57   50   52      ar
    58   50   53       1
    59   48   84       1
    60    5   54       1
    61    5   55       1
    62    6   56       1
    63    8   57       1
    64    9   58       1
    65   10   59       1
    66   11   60       1
    67   12   61       1
    68   14   62       1
    69   18   63       1
    70   18   64       1
    71   20   65       1
    72   26   66       1
    73   32   67       1
    74   34   68       1
    75   34   69       1
    76   34   70       1
    77   36   71       1
    78   36   72       1
    79   36   73       1
    80   37   74       1
    81   41   75       1
    82   41   76       1
    83   42   77       1
    84   43   78       1
    85   44   79       1
    86   45   80       1
    87   46   81       1
    88   47   82       1
    89   48   83       1
@<TRIPOS>SUBSTRUCTURE
     1 FAD266      1 GROUP             4 A     FAD     0 **** FAD A 266
