@<TRIPOS>MOLECULE
4clo_NAP_2_ligand
   73    77     1     0     0
SMALL
NO_CHARGES


@<TRIPOS>ATOM
     1 PA          21.2020   -11.4580    -0.5490 P.3          1 NAP1269   0.0000
     2 O1A         20.8780   -12.4850    -1.6150 O.co2        1 NAP1269   0.0000
     3 O2A         21.7450   -11.9980     0.7540 O.co2        1 NAP1269  -1.0000
     4 O5B         22.2300   -10.3900    -1.0510 O.3          1 NAP1269   0.0000
     5 C5B         21.8550    -9.2780    -1.8240 C.3          1 NAP1269   0.0000
     6 C4B         23.0650    -8.8020    -2.5930 C.3          1 NAP1269   0.0000
     7 O4B         23.9280    -8.0640    -1.7090 O.3          1 NAP1269   0.0000
     8 C3B         23.9770    -9.8690    -3.2210 C.3          1 NAP1269   0.0000
     9 O3B         23.5440   -10.2540    -4.5200 O.3          1 NAP1269   0.0000
    10 C2B         25.3360    -9.1840    -3.2580 C.3          1 NAP1269   0.0000
    11 O2B         25.8350    -8.8670    -4.5540 O.3          1 NAP1269   0.0000
    12 C1B         25.1030    -7.8910    -2.4120 C.3          1 NAP1269   0.0000
    13 N9A         26.2610    -7.8230    -1.5330 N.pl3        1 NAP1269   0.0000
    14 C8A         26.5900    -8.7670    -0.6190 C.2          1 NAP1269   0.0000
    15 N7A         27.7550    -8.4820    -0.0400 N.2          1 NAP1269   0.0000
    16 C5A         28.2030    -7.3850    -0.6770 C.ar         1 NAP1269   0.0000
    17 C6A         29.3910    -6.5600    -0.5800 C.ar         1 NAP1269   0.0000
    18 N6A         30.3550    -6.8800     0.3050 N.pl3        1 NAP1269   0.0000
    19 N1A         29.4660    -5.4720    -1.3700 N.ar         1 NAP1269   0.0000
    20 C2A         28.5250    -5.1450    -2.2600 C.ar         1 NAP1269   0.0000
    21 N3A         27.3970    -5.8390    -2.4390 N.ar         1 NAP1269   0.0000
    22 C4A         27.2170    -6.9500    -1.6690 C.ar         1 NAP1269   0.0000
    23 O3          19.8430   -10.5990    -0.3220 O.3          1 NAP1269   0.0000
    24 PN          18.2970   -11.0020    -0.4740 P.3          1 NAP1269   0.0000
    25 O1N         17.8520   -10.7770    -1.8830 O.co2        1 NAP1269   0.0000
    26 O2N         17.9750   -12.2500     0.2910 O.co2        1 NAP1269  -1.0000
    27 O5D         17.6730    -9.7780     0.3800 O.3          1 NAP1269   0.0000
    28 C5D         17.6000    -8.4520    -0.1310 C.3          1 NAP1269   0.0000
    29 C4D         17.4670    -7.4300     1.0230 C.3          1 NAP1269   0.0000
    30 O4D         16.3700    -7.8130     1.8270 O.3          1 NAP1269   0.0000
    31 C3D         18.6890    -7.4070     1.9300 C.3          1 NAP1269   0.0000
    32 O3D         19.0010    -6.0330     2.2830 O.3          1 NAP1269   0.0000
    33 C2D         18.2470    -8.2530     3.0980 C.3          1 NAP1269   0.0000
    34 O2D         18.9580    -8.0080     4.3070 O.3          1 NAP1269   0.0000
    35 C1D         16.7490    -7.9970     3.1610 C.3          1 NAP1269   0.0000
    36 N1N         16.0790    -9.1010     3.8180 N.ar         1 NAP1269   1.0000
    37 C2N         16.0140   -10.3110     3.2210 C.ar         1 NAP1269   0.0000
    38 C3N         15.3990   -11.3750     3.8570 C.ar         1 NAP1269   0.0000
    39 C7N         15.2360   -12.7140     3.1640 C.2          1 NAP1269   0.0000
    40 O7N         14.4510   -13.4990     3.6990 O.2          1 NAP1269   0.0000
    41 N7N         15.8930   -13.0020     2.0260 N.am         1 NAP1269   0.0000
    42 C4N         14.8580   -11.2160     5.1390 C.ar         1 NAP1269   0.0000
    43 C5N         14.9950    -9.9790     5.7570 C.ar         1 NAP1269   0.0000
    44 C6N         15.5790    -8.9340     5.0800 C.ar         1 NAP1269   0.0000
    45 P2B         26.6050    -9.9240    -5.5540 P.3          1 NAP1269   0.0000
    46 O1X         27.9680   -10.2280    -4.9430 O.co2        1 NAP1269   0.0000
    47 O2X         26.7110    -9.1640    -6.8640 O.co2        1 NAP1269  -1.0000
    48 O3X         25.7440   -11.1270    -5.6220 O.co2        1 NAP1269  -1.0000
    49 H5B1        21.5255    -8.5470    -1.2265 H            1 NAP1269   0.0000
    50 H5B2        21.1306    -9.5390    -2.4620 H            1 NAP1269   0.0000
    51 H4B         22.7555    -8.1862    -3.3176 H            1 NAP1269   0.0000
    52 H3B         24.0185   -10.6717    -2.6261 H            1 NAP1269   0.0000
    53 H5          24.3349   -10.5265    -5.0679 H            1 NAP1269   0.0000
    54 H2B         26.0025    -9.7624    -2.7876 H            1 NAP1269   0.0000
    55 H1B         25.0524    -7.0835    -2.9997 H            1 NAP1269   0.0000
    56 H8A         26.0329    -9.5701    -0.4074 H            1 NAP1269   0.0000
    57 H6A1        31.1765    -6.3142     0.3759 H            1 NAP1269   0.0000
    58 H6A2        30.2491    -7.6833     0.8910 H            1 NAP1269   0.0000
    59 H2A         28.6733    -4.3336    -2.8253 H            1 NAP1269   0.0000
    60 H5D1        16.8043    -8.3747    -0.7318 H            1 NAP1269   0.0000
    61 H5D2        18.4308    -8.2541    -0.6511 H            1 NAP1269   0.0000
    62 H4D         17.3079    -6.5167     0.6481 H            1 NAP1269   0.0000
    63 H3D         19.4690    -7.8319     1.4705 H            1 NAP1269   0.0000
    64 H16         19.6323    -5.6506     1.6083 H            1 NAP1269   0.0000
    65 H2D         18.3839    -9.2123     2.8509 H            1 NAP1269   0.0000
    66 H18         19.9304    -8.1933     4.1653 H            1 NAP1269   0.0000
    67 H1D         16.5785    -7.1548     3.6726 H            1 NAP1269   0.0000
    68 H2N         16.4131   -10.4387     2.3130 H            1 NAP1269   0.0000
    69 H7N1        15.7684   -13.8925     1.5883 H            1 NAP1269   0.0000
    70 H7N2        16.5060   -12.3256     1.6177 H            1 NAP1269   0.0000
    71 H4N         14.3870   -11.9704     5.5961 H            1 NAP1269   0.0000
    72 H5N         14.6692    -9.8487     6.6934 H            1 NAP1269   0.0000
    73 H6N         15.6391    -8.0370     5.5178 H            1 NAP1269   0.0000
@<TRIPOS>BOND
     1    1    2      ar
     2    1    3      ar
     3    1    4       1
     4    1   23       1
     5    4    5       1
     6    5    6       1
     7    6    7       1
     8    6    8       1
     9    7   12       1
    10    8    9       1
    11    8   10       1
    12   10   11       1
    13   10   12       1
    14   11   45       1
    15   12   13       1
    16   13   14       1
    17   13   22       1
    18   14   15       2
    19   15   16       1
    20   16   17      ar
    21   16   22      ar
    22   17   18       1
    23   17   19      ar
    24   19   20      ar
    25   20   21      ar
    26   21   22      ar
    27   23   24       1
    28   24   25      ar
    29   24   26      ar
    30   24   27       1
    31   27   28       1
    32   28   29       1
    33   29   30       1
    34   29   31       1
    35   30   35       1
    36   31   32       1
    37   31   33       1
    38   33   34       1
    39   33   35       1
    40   35   36       1
    41   36   37      ar
    42   36   44      ar
    43   37   38      ar
    44   38   39       1
    45   38   42      ar
    46   39   40       2
    47   39   41      am
    48   42   43      ar
    49   43   44      ar
    50   45   46      ar
    51   45   47      ar
    52   45   48      ar
    53   43   72       1
    54    5   49       1
    55    5   50       1
    56    6   51       1
    57    8   52       1
    58    9   53       1
    59   10   54       1
    60   12   55       1
    61   14   56       1
    62   18   57       1
    63   18   58       1
    64   20   59       1
    65   44   73       1
    66   28   60       1
    67   28   61       1
    68   29   62       1
    69   31   63       1
    70   32   64       1
    71   33   65       1
    72   34   66       1
    73   35   67       1
    74   37   68       1
    75   41   69       1
    76   41   70       1
    77   42   71       1
@<TRIPOS>SUBSTRUCTURE
     1 NAP1269     1 GROUP             4 B     NAP     0 **** NAP B1269
