@<TRIPOS>MOLECULE
4gte_MEF_2_ligand
   27    29     1     0     0
SMALL
NO_CHARGES


@<TRIPOS>ATOM
     1 N10         50.7860    52.3910   130.7490 N.3          1 MEF302   0.0000
     2 CM          49.5550    53.0990   130.3410 C.3          1 MEF302   0.0000
     3 N5          48.9290    52.3770   129.2120 N.pl3        1 MEF302   0.0000
     4 C9          50.8470    51.0900   130.0390 C.3          1 MEF302   0.0000
     5 C6          49.7610    51.1390   128.9800 C.3          1 MEF302   0.0000
     6 C7          48.9980    49.8180   128.9600 C.3          1 MEF302   0.0000
     7 N8          47.8350    50.1500   128.1510 N.pl3        1 MEF302   0.0000
     8 C8A         46.9890    51.0590   128.6970 C.2          1 MEF302   0.0000
     9 C4A         47.4970    52.2110   129.2860 C.2          1 MEF302   0.0000
    10 N1          45.6710    50.7910   128.6940 N.2          1 MEF302   0.0000
    11 C2          44.7720    51.6130   129.2440 C.2          1 MEF302   0.0000
    12 NA2         43.4880    51.1740   129.1390 N.pl3        1 MEF302   0.0000
    13 N3          45.1950    52.7930   129.8280 N.pl3        1 MEF302   0.0000
    14 C4          46.5450    53.1030   129.8490 C.2          1 MEF302   0.0000
    15 O4          46.9500    54.2630   130.4510 O.2          1 MEF302   0.0000
    16 HM1         49.7835    54.0301   130.0568 H            1 MEF302   0.0000
    17 HM2         48.9178    53.1324   131.1109 H            1 MEF302   0.0000
    18 H3          50.6771    50.3383   130.6762 H            1 MEF302   0.0000
    19 H4          51.7432    50.9690   129.6121 H            1 MEF302   0.0000
    20 H5          50.2105    51.2404   128.0925 H            1 MEF302   0.0000
    21 H6          48.7309    49.5391   129.8824 H            1 MEF302   0.0000
    22 H7          49.5398    49.0922   128.5361 H            1 MEF302   0.0000
    23 H8          47.6709    49.7370   127.2552 H            1 MEF302   0.0000
    24 HA21        42.7407    51.7186   129.5196 H            1 MEF302   0.0000
    25 HA22        43.2919    50.3068   128.6812 H            1 MEF302   0.0000
    26 H11         44.5294    53.4197   130.2333 H            1 MEF302   0.0000
    27 H12         50.7721    52.2346   131.7366 H            1 MEF302   0.0000
@<TRIPOS>BOND
     1    1    2       1
     2    1    4       1
     3    2    3       1
     4    3    5       1
     5    3    9       1
     6    4    5       1
     7    5    6       1
     8    6    7       1
     9    7    8       1
    10    8    9       2
    11    8   10       1
    12    9   14       1
    13   10   11       2
    14   11   12       1
    15   11   13       1
    16   13   14       1
    17   14   15       2
    18    1   27       1
    19    2   16       1
    20    2   17       1
    21    4   18       1
    22    4   19       1
    23    5   20       1
    24    6   21       1
    25    6   22       1
    26    7   23       1
    27   12   24       1
    28   12   25       1
    29   13   26       1
@<TRIPOS>SUBSTRUCTURE
     1 MEF302      1 GROUP             4 D     MEF     0 **** MEF D 302
