@<TRIPOS>MOLECULE
4hfm_NAP_2_ligand
   73    77     1     0     0
SMALL
NO_CHARGES


@<TRIPOS>ATOM
     1 PA          11.8290   -22.3920     9.3980 P.3          1 NAP400   0.0000
     2 O1A         10.7860   -22.5170     8.3100 O.co2        1 NAP400   0.0000
     3 O2A         12.8200   -23.4800     9.7770 O.co2        1 NAP400  -1.0000
     4 O5B         10.9410   -21.7780    10.5700 O.3          1 NAP400   0.0000
     5 C5B         10.0140   -20.8460    10.0230 C.3          1 NAP400   0.0000
     6 C4B          8.6790   -21.1560    10.6190 C.3          1 NAP400   0.0000
     7 O4B          7.9550   -19.9480    10.8300 O.3          1 NAP400   0.0000
     8 C3B          7.7210   -22.0700     9.8620 C.3          1 NAP400   0.0000
     9 O3B          8.1560   -23.4370     9.8160 O.3          1 NAP400   0.0000
    10 C2B          6.6840   -21.8670    10.9210 C.3          1 NAP400   0.0000
    11 O2B          6.6870   -22.6290    12.0940 O.3          1 NAP400   0.0000
    12 C1B          6.6350   -20.3560    11.1610 C.3          1 NAP400   0.0000
    13 N9A          5.6450   -19.6520    10.2940 N.pl3        1 NAP400   0.0000
    14 C8A          5.4570   -19.8500     8.9730 C.2          1 NAP400   0.0000
    15 N7A          4.4670   -19.0360     8.5350 N.2          1 NAP400   0.0000
    16 C5A          4.0410   -18.3230     9.5990 C.ar         1 NAP400   0.0000
    17 C6A          3.0680   -17.3500     9.7430 C.ar         1 NAP400   0.0000
    18 N6A          2.3370   -16.9670     8.6640 N.pl3        1 NAP400   0.0000
    19 N1A          2.8700   -16.8010    10.9660 N.ar         1 NAP400   0.0000
    20 C2A          3.6080   -17.1900    12.0280 C.ar         1 NAP400   0.0000
    21 N3A          4.5590   -18.1370    11.9110 N.ar         1 NAP400   0.0000
    22 C4A          4.7920   -18.7080    10.7060 C.ar         1 NAP400   0.0000
    23 O3          12.6930   -21.0720     8.9660 O.3          1 NAP400   0.0000
    24 PN          14.1850   -20.7390     9.4340 P.3          1 NAP400   0.0000
    25 O1N         14.3850   -21.0030    10.9030 O.co2        1 NAP400   0.0000
    26 O2N         15.2050   -21.2560     8.4830 O.co2        1 NAP400  -1.0000
    27 O5D         14.1410   -19.1190     9.2510 O.3          1 NAP400   0.0000
    28 C5D         13.2890   -18.2400    10.0080 C.3          1 NAP400   0.0000
    29 C4D         13.2570   -16.8440     9.3640 C.3          1 NAP400   0.0000
    30 O4D         14.6050   -16.3620     9.3150 O.3          1 NAP400   0.0000
    31 C3D         12.7750   -16.8560     7.9150 C.3          1 NAP400   0.0000
    32 O3D         11.9140   -15.7360     7.7050 O.3          1 NAP400   0.0000
    33 C2D         14.0420   -16.7330     7.0930 C.3          1 NAP400   0.0000
    34 O2D         13.7980   -16.1570     5.8160 O.3          1 NAP400   0.0000
    35 C1D         14.9020   -15.8820     8.0000 C.3          1 NAP400   0.0000
    36 N1N         16.3380   -15.9780     7.8000 N.ar         1 NAP400   1.0000
    37 C2N         17.0070   -14.8320     7.8400 C.ar         1 NAP400   0.0000
    38 C3N         18.3850   -14.8000     7.6960 C.ar         1 NAP400   0.0000
    39 C7N         19.1050   -13.4760     7.7530 C.2          1 NAP400   0.0000
    40 O7N         20.2690   -13.4590     7.3930 O.2          1 NAP400   0.0000
    41 N7N         18.4680   -12.3920     8.2220 N.am         1 NAP400   0.0000
    42 C4N         19.0940   -15.9900     7.4900 C.ar         1 NAP400   0.0000
    43 C5N         18.3690   -17.1850     7.5000 C.ar         1 NAP400   0.0000
    44 C6N         16.9870   -17.1580     7.6620 C.ar         1 NAP400   0.0000
    45 P2B          5.2700   -22.7860    12.8530 P.3          1 NAP400   0.0000
    46 O1X          5.0850   -24.2690    12.6920 O.co2        1 NAP400   0.0000
    47 O2X          5.6500   -22.3460    14.2340 O.co2        1 NAP400  -1.0000
    48 O3X          4.2070   -21.9720    12.1540 O.co2        1 NAP400  -1.0000
    49 H5B1         9.9767   -20.9423     9.0283 H            1 NAP400   0.0000
    50 H5B2        10.2864   -19.9128    10.2575 H            1 NAP400   0.0000
    51 H4B          8.8403   -21.5685    11.5156 H            1 NAP400   0.0000
    52 H3B          7.4515   -21.7095     8.9690 H            1 NAP400   0.0000
    53 H5           9.0445   -23.4889     9.3601 H            1 NAP400   0.0000
    54 H2B          5.8156   -22.0847    10.4754 H            1 NAP400   0.0000
    55 H1B          6.4465   -20.1657    12.1245 H            1 NAP400   0.0000
    56 H8A          5.9682   -20.4961     8.4062 H            1 NAP400   0.0000
    57 H6A1         1.6322   -16.2643     8.7614 H            1 NAP400   0.0000
    58 H6A2         2.5036   -17.3878     7.7723 H            1 NAP400   0.0000
    59 H2A          3.4453   -16.7666    12.9192 H            1 NAP400   0.0000
    60 H5D1        13.6388   -18.1647    10.9418 H            1 NAP400   0.0000
    61 H5D2        12.3623   -18.6154    10.0284 H            1 NAP400   0.0000
    62 H4D         12.6906   -16.2264     9.9097 H            1 NAP400   0.0000
    63 H3D         12.3001   -17.7112     7.7072 H            1 NAP400   0.0000
    64 H16         11.5930   -15.7353     6.7579 H            1 NAP400   0.0000
    65 H2D         14.4598   -17.6346     6.9814 H            1 NAP400   0.0000
    66 H18         13.8902   -15.1630     5.8755 H            1 NAP400   0.0000
    67 H1D         14.6195   -14.9257     7.9240 H            1 NAP400   0.0000
    68 H2N         16.5076   -13.9764     7.9765 H            1 NAP400   0.0000
    69 H7N1        18.9414   -11.5120     8.2617 H            1 NAP400   0.0000
    70 H7N2        17.5200   -12.4642     8.5318 H            1 NAP400   0.0000
    71 H4N         20.0829   -15.9850     7.3412 H            1 NAP400   0.0000
    72 H5N         18.8430   -18.0587     7.3908 H            1 NAP400   0.0000
    73 H6N         16.4709   -18.0144     7.6765 H            1 NAP400   0.0000
@<TRIPOS>BOND
     1    1    2      ar
     2    1    3      ar
     3    1    4       1
     4    1   23       1
     5    4    5       1
     6    5    6       1
     7    6    7       1
     8    6    8       1
     9    7   12       1
    10    8    9       1
    11    8   10       1
    12   10   11       1
    13   10   12       1
    14   11   45       1
    15   12   13       1
    16   13   14       1
    17   13   22       1
    18   14   15       2
    19   15   16       1
    20   16   17      ar
    21   16   22      ar
    22   17   18       1
    23   17   19      ar
    24   19   20      ar
    25   20   21      ar
    26   21   22      ar
    27   23   24       1
    28   24   25      ar
    29   24   26      ar
    30   24   27       1
    31   27   28       1
    32   28   29       1
    33   29   30       1
    34   29   31       1
    35   30   35       1
    36   31   32       1
    37   31   33       1
    38   33   34       1
    39   33   35       1
    40   35   36       1
    41   36   37      ar
    42   36   44      ar
    43   37   38      ar
    44   38   39       1
    45   38   42      ar
    46   39   40       2
    47   39   41      am
    48   42   43      ar
    49   43   44      ar
    50   45   46      ar
    51   45   47      ar
    52   45   48      ar
    53   43   72       1
    54    5   49       1
    55    5   50       1
    56    6   51       1
    57    8   52       1
    58    9   53       1
    59   10   54       1
    60   12   55       1
    61   14   56       1
    62   18   57       1
    63   18   58       1
    64   20   59       1
    65   44   73       1
    66   28   60       1
    67   28   61       1
    68   29   62       1
    69   31   63       1
    70   32   64       1
    71   33   65       1
    72   34   66       1
    73   35   67       1
    74   37   68       1
    75   41   69       1
    76   41   70       1
    77   42   71       1
@<TRIPOS>SUBSTRUCTURE
     1 NAP400      1 GROUP             4 B     NAP     0 **** NAP B 400
