@<TRIPOS>MOLECULE
3o6r_PYG_2_ligand
   13    13     1     0     0
SMALL
NO_CHARGES


@<TRIPOS>ATOM
     1 C1          36.2960    51.4570   262.8080 C.ar         1 PYG258   0.0000
     2 C2          36.1570    50.5830   261.6110 C.ar         1 PYG258   0.0000
     3 C3          34.8200    50.3060   261.1130 C.ar         1 PYG258   0.0000
     4 C4          33.7250    50.8710   261.7740 C.ar         1 PYG258   0.0000
     5 C5          33.8930    51.6910   262.9000 C.ar         1 PYG258   0.0000
     6 C6          35.1530    51.9790   263.4070 C.ar         1 PYG258   0.0000
     7 O2          37.1850    50.0120   260.9260 O.3          1 PYG258  -1.0000
     8 O3          34.7460    49.5020   260.0110 O.3          1 PYG258   0.0000
     9 H1          37.2010    51.6669   263.1779 H            1 PYG258   0.0000
    10 H2          32.8018    50.6866   261.4368 H            1 PYG258   0.0000
    11 H3          33.0865    52.0770   263.3478 H            1 PYG258   0.0000
    12 H4          35.2403    52.5675   264.2108 H            1 PYG258   0.0000
    13 H5          33.8554    49.2727   259.6183 H            1 PYG258   0.0000
@<TRIPOS>BOND
     1    1    2      ar
     2    1    6      ar
     3    2    3      ar
     4    2    7       1
     5    3    4      ar
     6    3    8       1
     7    4    5      ar
     8    5    6      ar
     9    1    9       1
    10    4   10       1
    11    5   11       1
    12    6   12       1
    13    8   13       1
@<TRIPOS>SUBSTRUCTURE
     1 PYG258      1 GROUP             4 B     PYG     0 **** PYG B 258
