@<TRIPOS>MOLECULE
3if2_PLP_1_ligand
   24    24     1     0     0
SMALL
NO_CHARGES


@<TRIPOS>ATOM
     1 N1          27.3430    60.8730    73.8910 N.ar         1 PLP500   1.0000
     2 C2          26.7620    60.5190    75.0900 C.ar         1 PLP500   0.0000
     3 C2A         27.5270    60.8040    76.3430 C.3          1 PLP500   0.0000
     4 C3          25.4800    59.9240    75.1010 C.ar         1 PLP500   0.0000
     5 O3          24.8640    59.5600    76.2690 O.3          1 PLP500  -1.0000
     6 C4          24.8110    59.6700    73.8800 C.ar         1 PLP500   0.0000
     7 C4A         23.5710    58.7850    73.9360 C.2          1 PLP500   0.0000
     8 O4A         22.5230    59.0990    73.3580 O.2          1 PLP500   0.0000
     9 C5          25.4430    60.0450    72.6480 C.ar         1 PLP500   0.0000
    10 C6          26.7140    60.6480    72.6970 C.ar         1 PLP500   0.0000
    11 C5A         24.8250    59.7780    71.2610 C.3          1 PLP500   0.0000
    12 O4P         23.9620    60.8020    70.8130 O.3          1 PLP500   0.0000
    13 P           23.4790    60.8620    69.2840 P.3          1 PLP500   0.0000
    14 O1P         23.9710    59.8340    68.2940 O.co2        1 PLP500   0.0000
    15 O2P         23.9800    62.2060    68.8750 O.co2        1 PLP500  -1.0000
    16 O3P         22.0050    60.7820    69.3460 O.co2        1 PLP500  -1.0000
    17 H2A1        26.9962    60.5000    77.1341 H            1 PLP500   0.0000
    18 H2A2        28.3993    60.3156    76.3193 H            1 PLP500   0.0000
    19 H2A3        27.6971    61.7869    76.4134 H            1 PLP500   0.0000
    20 H4A         23.6054    57.9295    74.4527 H            1 PLP500   0.0000
    21 H5          27.1644    60.9162    71.8454 H            1 PLP500   0.0000
    22 H5A1        24.3047    58.9252    71.3069 H            1 PLP500   0.0000
    23 H5A2        25.5679    59.6800    70.5988 H            1 PLP500   0.0000
    24 H8          28.2452    61.3043    73.8940 H            1 PLP500   0.0000
@<TRIPOS>BOND
     1    1    2      ar
     2    1   10      ar
     3    2    3       1
     4    2    4      ar
     5    4    5       1
     6    4    6      ar
     7    6    7       1
     8    6    9      ar
     9    7    8       2
    10    9   10      ar
    11    9   11       1
    12   11   12       1
    13   12   13       1
    14   13   14      ar
    15   13   15      ar
    16   13   16      ar
    17    3   17       1
    18    3   18       1
    19    3   19       1
    20    1   24       1
    21    7   20       1
    22   10   21       1
    23   11   22       1
    24   11   23       1
@<TRIPOS>SUBSTRUCTURE
     1 PLP500      1 GROUP             4 A     PLP     0 **** PLP A 500
