@<TRIPOS>MOLECULE
3ldl_ATP_1_ligand
   43    45     1     0     0
SMALL
NO_CHARGES


@<TRIPOS>ATOM
     1 PG          20.0060     1.7630     4.2640 P.3          1 ATP408   0.0000
     2 O1G         18.6210     2.3120     4.4670 O.co2        1 ATP408   0.0000
     3 O2G         20.5160     1.0480     5.4860 O.co2        1 ATP408  -1.0000
     4 O3G         21.0250     2.6580     3.6010 O.co2        1 ATP408  -1.0000
     5 PB          20.8320    -0.3700     2.4460 P.3          1 ATP408   0.0000
     6 O1B         20.7340    -0.2490     0.9230 O.co2        1 ATP408   0.0000
     7 O2B         22.1410    -0.0870     3.1150 O.co2        1 ATP408  -1.0000
     8 O3B         19.7390     0.6340     3.1180 O.3          1 ATP408   0.0000
     9 PA          19.1490    -2.8470     2.3450 P.3          1 ATP408   0.0000
    10 O1A         19.9120    -4.0330     1.7850 O.co2        1 ATP408   0.0000
    11 O2A         18.0420    -2.2260     1.5380 O.co2        1 ATP408  -1.0000
    12 O3A         20.2660    -1.7960     2.9400 O.3          1 ATP408   0.0000
    13 O5'         18.4580    -3.2440     3.7390 O.3          1 ATP408   0.0000
    14 C5'         19.1320    -4.0020     4.7280 C.3          1 ATP408   0.0000
    15 C4'         18.1260    -4.4660     5.7970 C.3          1 ATP408   0.0000
    16 O4'         17.1270    -5.3100     5.2480 O.3          1 ATP408   0.0000
    17 C3'         18.8210    -5.2860     6.8610 C.3          1 ATP408   0.0000
    18 O3'         18.3990    -4.7580     8.1110 O.3          1 ATP408   0.0000
    19 C2'         18.3620    -6.7230     6.6900 C.3          1 ATP408   0.0000
    20 O2'         18.2330    -7.3970     7.9480 O.3          1 ATP408   0.0000
    21 C1'         16.9990    -6.5240     6.0340 C.3          1 ATP408   0.0000
    22 N9          16.5760    -7.7160     5.2320 N.pl3        1 ATP408   0.0000
    23 C8          17.2130    -8.2540     4.1650 C.2          1 ATP408   0.0000
    24 N7          16.5190    -9.3150     3.7010 N.2          1 ATP408   0.0000
    25 C5          15.4050    -9.4760     4.4420 C.ar         1 ATP408   0.0000
    26 C6          14.2350   -10.4070     4.4910 C.ar         1 ATP408   0.0000
    27 N6          14.0940   -11.4200     3.6240 N.pl3        1 ATP408   0.0000
    28 N1          13.2940   -10.2240     5.4180 N.ar         1 ATP408   0.0000
    29 C2          13.3770    -9.2120     6.3080 C.ar         1 ATP408   0.0000
    30 N3          14.3970    -8.3310     6.3380 N.ar         1 ATP408   0.0000
    31 C4          15.4390    -8.4100     5.4510 C.ar         1 ATP408   0.0000
    32 H5'1        19.8370    -3.4374     5.1571 H            1 ATP408   0.0000
    33 H5'2        19.5577    -4.8006     4.3026 H            1 ATP408   0.0000
    34 H4'         17.6947    -3.6683     6.2185 H            1 ATP408   0.0000
    35 H3'         19.8142    -5.2187     6.7663 H            1 ATP408   0.0000
    36 H5          19.1246    -4.8830     8.7877 H            1 ATP408   0.0000
    37 H2'         18.9789    -7.2224     6.0817 H            1 ATP408   0.0000
    38 H7          19.1014    -7.8338     8.1827 H            1 ATP408   0.0000
    39 H1'         16.3208    -6.3674     6.7520 H            1 ATP408   0.0000
    40 H9          18.0707    -7.9155     3.7780 H            1 ATP408   0.0000
    41 H10         13.2991   -12.0236     3.6853 H            1 ATP408   0.0000
    42 H11         14.7837   -11.5719     2.9161 H            1 ATP408   0.0000
    43 H12         12.6435    -9.1107     6.9801 H            1 ATP408   0.0000
@<TRIPOS>BOND
     1    1    2      ar
     2    1    3      ar
     3    1    4      ar
     4    1    8       1
     5    5    6      ar
     6    5    7      ar
     7    5    8       1
     8    5   12       1
     9    9   10      ar
    10    9   11      ar
    11    9   12       1
    12    9   13       1
    13   13   14       1
    14   14   15       1
    15   15   16       1
    16   15   17       1
    17   16   21       1
    18   17   18       1
    19   17   19       1
    20   19   20       1
    21   19   21       1
    22   21   22       1
    23   22   23       1
    24   22   31       1
    25   23   24       2
    26   24   25       1
    27   25   26      ar
    28   25   31      ar
    29   26   27       1
    30   26   28      ar
    31   28   29      ar
    32   29   30      ar
    33   30   31      ar
    34   29   43       1
    35   27   42       1
    36   27   41       1
    37   23   40       1
    38   14   32       1
    39   14   33       1
    40   15   34       1
    41   17   35       1
    42   18   36       1
    43   19   37       1
    44   20   38       1
    45   21   39       1
@<TRIPOS>SUBSTRUCTURE
     1 ATP408      1 GROUP             4 A     ATP     0 **** ATP A 408
