@<TRIPOS>MOLECULE
3i0o_SMI_1_ligand
   52    54     1     0     0
SMALL
NO_CHARGES


@<TRIPOS>ATOM
     1 O1          34.5610    -6.9110    15.7310 O.3          1 SMI340   0.0000
     2 C2          34.7050    -5.8120    14.7930 C.3          1 SMI340   0.0000
     3 C2M         34.1330    -6.2410    13.4470 C.3          1 SMI340   0.0000
     4 C3          36.2210    -5.4130    14.6520 C.3          1 SMI340   0.0000
     5 C4          36.6760    -5.0340    16.0390 C.3          1 SMI340   0.0000
     6 C5          36.5440    -6.3170    16.8330 C.3          1 SMI340   0.0000
     7 O5          37.0090    -6.0070    18.1500 O.3          1 SMI340   0.0000
     8 C6          35.0810    -6.5960    17.0540 C.3          1 SMI340   0.0000
     9 O1B         37.3060    -7.4050    16.3250 O.3          1 SMI340   0.0000
    10 O2B         34.8290    -7.8520    17.7130 O.3          1 SMI340   0.0000
    11 C7          37.1400    -8.5190    17.1680 C.3          1 SMI340   0.0000
    12 C8          38.0130    -9.6720    16.6400 C.3          1 SMI340   0.0000
    13 N8          39.4060    -9.1730    16.6350 N.4          1 SMI340   1.0000
    14 C8M         40.3300   -10.1940    16.1300 C.3          1 SMI340   0.0000
    15 C9          37.8470   -10.8860    17.6110 C.3          1 SMI340   0.0000
    16 O9          38.2680   -10.5000    18.9310 O.3          1 SMI340   0.0000
    17 C10         36.3490   -11.3240    17.6610 C.3          1 SMI340   0.0000
    18 N10         36.1450   -12.3640    18.5340 N.4          1 SMI340   1.0000
    19 C1M         36.8950   -13.5770    18.1810 C.3          1 SMI340   0.0000
    20 C11         35.5010   -10.1400    18.1210 C.3          1 SMI340   0.0000
    21 O11         34.1510   -10.5420    18.1350 O.3          1 SMI340   0.0000
    22 C12         35.6580    -8.9400    17.2040 C.3          1 SMI340   0.0000
    23 O4A         38.0340    -4.5870    16.1250 O.3          1 SMI340   0.0000
    24 O4B         35.8470    -3.9560    16.2310 O.3          1 SMI340   0.0000
    25 H1          34.1898    -5.0243    15.1309 H            1 SMI340   0.0000
    26 H2M1        34.2262    -5.4919    12.7912 H            1 SMI340   0.0000
    27 H2M2        34.6316    -7.0407    13.1126 H            1 SMI340   0.0000
    28 H2M3        33.1659    -6.4719    13.5541 H            1 SMI340   0.0000
    29 H5          36.3206    -4.6374    14.0286 H            1 SMI340   0.0000
    30 H6          36.7544    -6.1865    14.3096 H            1 SMI340   0.0000
    31 H7          37.9923    -6.1802    18.2057 H            1 SMI340   0.0000
    32 H8          34.6026    -5.8309    17.4850 H            1 SMI340   0.0000
    33 H9          37.4362    -8.2789    18.0924 H            1 SMI340   0.0000
    34 H10         37.7313    -9.9258    15.7147 H            1 SMI340   0.0000
    35 H11         39.6685    -8.9276    17.5682 H            1 SMI340   0.0000
    36 H8M1        41.2623    -9.8325    16.1369 H            1 SMI340   0.0000
    37 H8M2        40.2825   -11.0046    16.7137 H            1 SMI340   0.0000
    38 H8M3        40.0752   -10.4411    15.1951 H            1 SMI340   0.0000
    39 H15         38.4081   -11.6494    17.2909 H            1 SMI340   0.0000
    40 H16         39.0250   -11.0843    19.2236 H            1 SMI340   0.0000
    41 H17         36.0570   -11.6013    16.7457 H            1 SMI340   0.0000
    42 H18         35.1698   -12.5851    18.5414 H            1 SMI340   0.0000
    43 H1M1        36.7045   -14.2937    18.8519 H            1 SMI340   0.0000
    44 H1M2        36.6167   -13.8884    17.2724 H            1 SMI340   0.0000
    45 H1M3        37.8743   -13.3745    18.1785 H            1 SMI340   0.0000
    46 H22         35.7750    -9.8818    19.0474 H            1 SMI340   0.0000
    47 H23         33.9245   -10.9183    19.0334 H            1 SMI340   0.0000
    48 H24         35.3583    -9.1839    16.2817 H            1 SMI340   0.0000
    49 H4A         38.6447    -5.3136    15.8101 H            1 SMI340   0.0000
    50 H4B         36.0159    -3.5624    17.1346 H            1 SMI340   0.0000
    51 H27         39.4612    -8.3641    16.0496 H            1 SMI340   0.0000
    52 H28         36.4274   -12.0712    19.4475 H            1 SMI340   0.0000
@<TRIPOS>BOND
     1    1    2       1
     2    1    8       1
     3    2    3       1
     4    2    4       1
     5    4    5       1
     6    5    6       1
     7    5   23       1
     8    5   24       1
     9    6    7       1
    10    6    8       1
    11    6    9       1
    12    8   10       1
    13    9   11       1
    14   10   22       1
    15   11   12       1
    16   11   22       1
    17   12   13       1
    18   12   15       1
    19   13   14       1
    20   15   16       1
    21   15   17       1
    22   17   18       1
    23   17   20       1
    24   18   19       1
    25   20   21       1
    26   20   22       1
    27    2   25       1
    28    3   26       1
    29    3   27       1
    30    3   28       1
    31    4   29       1
    32    4   30       1
    33    7   31       1
    34    8   32       1
    35   11   33       1
    36   12   34       1
    37   13   35       1
    38   14   36       1
    39   14   37       1
    40   14   38       1
    41   15   39       1
    42   16   40       1
    43   17   41       1
    44   18   42       1
    45   19   43       1
    46   19   44       1
    47   19   45       1
    48   20   46       1
    49   21   47       1
    50   22   48       1
    51   23   49       1
    52   24   50       1
    53   13   51       1
    54   18   52       1
@<TRIPOS>SUBSTRUCTURE
     1 SMI340      1 GROUP             4 A     SMI     0 **** SMI A 340
