@<TRIPOS>MOLECULE
3r9f_GSU_1_ligand
   53    55     1     0     0
SMALL
NO_CHARGES


@<TRIPOS>ATOM
     1 C2          62.3180     1.6400     9.8260 C.ar         1 GSU500   0.0000
     2 S           66.9300     8.1190     6.9940 S.o2         1 GSU500   0.0000
     3 N           66.9370    12.6920     5.0690 N.4          1 GSU500   1.0000
     4 CA          67.4740    11.3500     4.8810 C.3          1 GSU500   0.0000
     5 CB          68.9830    11.3780     5.1240 C.3          1 GSU500   0.0000
     6 CG          69.3390    11.8800     6.5200 C.3          1 GSU500   0.0000
     7 CD          69.8880    13.2870     6.4870 C.2          1 GSU500   0.0000
     8 OE1         71.1100    13.4560     6.6820 O.co2        1 GSU500   0.0000
     9 OE2         69.1010    14.2350     6.2940 O.co2        1 GSU500  -1.0000
    10 C           66.7910    10.3740     5.8010 C.2          1 GSU500   0.0000
    11 O           65.6980    10.6650     6.2540 O.2          1 GSU500   0.0000
    12 N10         67.4420     9.2280     6.0640 N.am         1 GSU500   0.0000
    13 O1S         67.4410     6.8240     6.5390 O.2          1 GSU500   0.0000
    14 O2S         67.3880     8.4170     8.3610 O.2          1 GSU500   0.0000
    15 O5'         65.3160     8.1050     6.9820 O.3          1 GSU500   0.0000
    16 C5'         64.6140     7.5920     5.8560 C.3          1 GSU500   0.0000
    17 C4'         63.3570     6.9220     6.3790 C.3          1 GSU500   0.0000
    18 O4'         63.7330     5.7530     7.1190 O.3          1 GSU500   0.0000
    19 C1'         62.9490     5.6940     8.3000 C.3          1 GSU500   0.0000
    20 N9          63.6610     4.8860     9.3040 N.pl3        1 GSU500   0.0000
    21 C4          63.3930     3.6410     9.6890 C.ar         1 GSU500   0.0000
    22 N3          62.3820     2.8120     9.2830 N.ar         1 GSU500   0.0000
    23 N1          63.1170     1.1680    10.7270 N.ar         1 GSU500   0.0000
    24 C6          64.1320     1.8920    11.2010 C.ar         1 GSU500   0.0000
    25 N6          64.9430     1.4720    12.0860 N.pl3        1 GSU500   0.0000
    26 C5          64.2800     3.2430    10.6430 C.ar         1 GSU500   0.0000
    27 N7          65.1460     4.2510    10.8410 N.2          1 GSU500   0.0000
    28 C8          64.7550     5.2520    10.0130 C.2          1 GSU500   0.0000
    29 C2'         62.7810     7.1540     8.6800 C.3          1 GSU500   0.0000
    30 O2'         61.6890     7.3160     9.5860 O.3          1 GSU500   0.0000
    31 C3'         62.5710     7.8100     7.3290 C.3          1 GSU500   0.0000
    32 O3'         61.2090     7.7160     6.9190 O.3          1 GSU500   0.0000
    33 H1          61.5788     1.0403     9.5194 H            1 GSU500   0.0000
    34 H2          66.9578    13.1843     4.1988 H            1 GSU500   0.0000
    35 H3          65.9936    12.6309     5.3949 H            1 GSU500   0.0000
    36 HA          67.3076    11.0686     3.9360 H            1 GSU500   0.0000
    37 HB1         69.4058    11.9818     4.4483 H            1 GSU500   0.0000
    38 HB2         69.3430    10.4515     5.0146 H            1 GSU500   0.0000
    39 HG1         70.0278    11.2730     6.9164 H            1 GSU500   0.0000
    40 HG2         68.5163    11.8668     7.0883 H            1 GSU500   0.0000
    41 H9          68.3270     9.0870     5.6203 H            1 GSU500   0.0000
    42 H5'1        65.1818     6.9257     5.3726 H            1 GSU500   0.0000
    43 H5'2        64.3720     8.3370     5.2344 H            1 GSU500   0.0000
    44 H4'         62.7748     6.6577     5.6101 H            1 GSU500   0.0000
    45 H1'         62.0579     5.2864     8.1005 H            1 GSU500   0.0000
    46 H14         65.6862     2.0612    12.4031 H            1 GSU500   0.0000
    47 H15         64.8375     0.5525    12.4648 H            1 GSU500   0.0000
    48 H16         65.2119     6.1383     9.9368 H            1 GSU500   0.0000
    49 H2'         63.6230     7.4961     9.0972 H            1 GSU500   0.0000
    50 H18         61.0066     7.9239     9.1802 H            1 GSU500   0.0000
    51 H3'         62.9005     8.7541     7.3168 H            1 GSU500   0.0000
    52 H20         60.7372     8.5718     7.1310 H            1 GSU500   0.0000
    53 H21         67.4912    13.1815     5.7422 H            1 GSU500   0.0000
@<TRIPOS>BOND
     1    1   22      ar
     2    1   23      ar
     3    2   12       1
     4    2   13       2
     5    2   14       2
     6    2   15       1
     7    3    4       1
     8    4    5       1
     9    4   10       1
    10    5    6       1
    11    6    7       1
    12    7    8      ar
    13    7    9      ar
    14   10   11       2
    15   10   12      am
    16   15   16       1
    17   16   17       1
    18   17   18       1
    19   17   31       1
    20   18   19       1
    21   19   20       1
    22   19   29       1
    23   20   21       1
    24   20   28       1
    25   21   22      ar
    26   21   26      ar
    27   23   24      ar
    28   24   25       1
    29   24   26      ar
    30   26   27       1
    31   27   28       2
    32   29   30       1
    33   29   31       1
    34   31   32       1
    35    1   33       1
    36    3   34       1
    37    3   35       1
    38    4   36       1
    39    5   37       1
    40    5   38       1
    41    6   39       1
    42    6   40       1
    43    3   53       1
    44   12   41       1
    45   16   42       1
    46   16   43       1
    47   17   44       1
    48   19   45       1
    49   25   46       1
    50   25   47       1
    51   28   48       1
    52   29   49       1
    53   30   50       1
    54   31   51       1
    55   32   52       1
@<TRIPOS>SUBSTRUCTURE
     1 GSU500      1 GROUP             4 A     GSU     0 **** GSU A 500
