@<TRIPOS>MOLECULE
4lng_JAN_1_ligand
   58    62     1     0     0
SMALL
NO_CHARGES


@<TRIPOS>ATOM
     1 C1          26.4840    -2.7060     6.8600 C.3          1 JAN602   0.0000
     2 N1          25.1360    -2.2490     6.2880 N.2          1 JAN602   1.0000
     3 C2          24.2120    -1.9740     7.1620 C.2          1 JAN602   0.0000
     4 N2          23.2430    -1.4340     6.5670 N.2          1 JAN602   0.0000
     5 C3          23.3160    -1.3510     5.1560 C.3          1 JAN602   0.0000
     6 C4          24.7480    -1.7340     5.0100 C.2          1 JAN602   0.0000
     7 C5          25.5990    -1.9410     3.5940 C.3          1 JAN602   0.0000
     8 C6          25.9760    -3.4610     3.6110 C.ar         1 JAN602   0.0000
     9 C7          24.9940    -4.3610     3.8350 C.ar         1 JAN602   0.0000
    10 C8          25.0850    -5.7530     3.6350 C.ar         1 JAN602   0.0000
    11 C9          26.4620    -5.8080     2.9500 C.ar         1 JAN602   0.0000
    12 CL1         26.5860    -7.6860     2.4800 Cl           1 JAN602   0.0000
    13 C10         27.3760    -5.0460     2.7180 C.ar         1 JAN602   0.0000
    14 C11         27.1350    -3.6740     3.0940 C.ar         1 JAN602   0.0000
    15 N3          26.8180    -1.2690     3.9060 N.4          1 JAN602   1.0000
    16 C12         24.5910    -1.3910     2.5750 C.ar         1 JAN602   0.0000
    17 C13         24.2740    -2.1660     1.6540 C.ar         1 JAN602   0.0000
    18 C14         23.6050    -1.5640     0.6080 C.ar         1 JAN602   0.0000
    19 C15         24.5260    -0.0180     2.7100 C.ar         1 JAN602   0.0000
    20 C16         23.5720     0.6780     1.6170 C.ar         1 JAN602   0.0000
    21 C17         23.1010    -0.4510     0.6580 C.ar         1 JAN602   0.0000
    22 N4          22.3620     0.2910    -0.3730 N.pl3        1 JAN602   0.0000
    23 C18         21.9580     1.7970    -0.1870 C.3          1 JAN602   0.0000
    24 C19         21.7100    -0.4820    -1.2810 C.2          1 JAN602   0.0000
    25 O1          20.9700     0.1280    -2.0920 O.2          1 JAN602   0.0000
    26 C20         22.1260    -1.8020    -1.2470 C.2          1 JAN602   0.0000
    27 C21         23.0900    -2.3800    -0.4950 C.2          1 JAN602   0.0000
    28 C22         23.4000    -3.8110    -0.5700 C.ar         1 JAN602   0.0000
    29 C23         22.9000    -4.7160     0.4720 C.ar         1 JAN602   0.0000
    30 C24         23.3140    -6.0040     0.1460 C.ar         1 JAN602   0.0000
    31 CL2         22.7950    -7.2130     1.3520 Cl           1 JAN602   0.0000
    32 C25         24.2280    -6.5380    -0.9120 C.ar         1 JAN602   0.0000
    33 C26         24.4220    -5.5200    -1.9230 C.ar         1 JAN602   0.0000
    34 C27         24.0910    -4.2940    -1.6380 C.ar         1 JAN602   0.0000
    35 H1          27.1191    -2.8905     6.1099 H            1 JAN602   0.0000
    36 H2          26.8589    -1.9868     7.4449 H            1 JAN602   0.0000
    37 H3          26.3527    -3.5386     7.3980 H            1 JAN602   0.0000
    38 H4          24.2632    -2.1606     8.1431 H            1 JAN602   0.0000
    39 H5          23.1332    -0.4273     4.8194 H            1 JAN602   0.0000
    40 H6          22.7014    -1.9980     4.7047 H            1 JAN602   0.0000
    41 H7          24.1223    -4.0070     4.1739 H            1 JAN602   0.0000
    42 H8          24.4459    -6.4859     3.8684 H            1 JAN602   0.0000
    43 H9          28.2324    -5.3458     2.2977 H            1 JAN602   0.0000
    44 H10         27.8118    -2.9495     2.9638 H            1 JAN602   0.0000
    45 H11         27.4616    -1.9176     4.3123 H            1 JAN602   0.0000
    46 H12         27.2121    -0.8879     3.0696 H            1 JAN602   0.0000
    47 H13         24.4864    -3.1430     1.6707 H            1 JAN602   0.0000
    48 H14         25.0208     0.4910     3.4143 H            1 JAN602   0.0000
    49 H15         23.3297     1.6468     1.5649 H            1 JAN602   0.0000
    50 H16         21.4647     2.1124    -0.9977 H            1 JAN602   0.0000
    51 H17         21.3703     1.8876     0.6170 H            1 JAN602   0.0000
    52 H18         22.7817     2.3501    -0.0618 H            1 JAN602   0.0000
    53 H19         21.6432    -2.4180    -1.8694 H            1 JAN602   0.0000
    54 H20         22.3595    -4.4543     1.2716 H            1 JAN602   0.0000
    55 H21         24.6382    -7.4500    -0.9194 H            1 JAN602   0.0000
    56 H22         24.8011    -5.7532    -2.8185 H            1 JAN602   0.0000
    57 H23         24.3879    -3.6065    -2.3008 H            1 JAN602   0.0000
    58 H24         26.6348    -0.5304     4.5548 H            1 JAN602   0.0000
@<TRIPOS>BOND
     1    1    2       1
     2    2    3       1
     3    2    6       2
     4    3    4       2
     5    4    5       1
     6    5    6       1
     7    6    7       1
     8    7    8       1
     9    7   15       1
    10    7   16       1
    11    8    9      ar
    12    8   14      ar
    13    9   10      ar
    14   10   11      ar
    15   11   12       1
    16   11   13      ar
    17   13   14      ar
    18   16   17      ar
    19   16   19      ar
    20   17   18      ar
    21   18   21      ar
    22   18   27       1
    23   19   20      ar
    24   20   21      ar
    25   21   22       1
    26   22   23       1
    27   22   24       1
    28   24   25       2
    29   24   26       1
    30   26   27       2
    31   27   28       1
    32   28   29      ar
    33   28   34      ar
    34   29   30      ar
    35   30   31       1
    36   30   32      ar
    37   32   33      ar
    38   33   34      ar
    39    1   35       1
    40    1   36       1
    41    1   37       1
    42    3   38       1
    43    5   39       1
    44    5   40       1
    45    9   41       1
    46   10   42       1
    47   13   43       1
    48   14   44       1
    49   15   45       1
    50   15   46       1
    51   17   47       1
    52   19   48       1
    53   20   49       1
    54   23   50       1
    55   23   51       1
    56   23   52       1
    57   26   53       1
    58   29   54       1
    59   32   55       1
    60   33   56       1
    61   34   57       1
    62   15   58       1
@<TRIPOS>SUBSTRUCTURE
     1 JAN602      1 GROUP             4 B     JAN     0 **** JAN B 602
