@<TRIPOS>MOLECULE
3c3e_GDP_7_ligand
   40    42     1     0     0
SMALL
NO_CHARGES


@<TRIPOS>ATOM
     1 PB         143.5340    43.6750   -39.1550 P.3          1 GDP402   0.0000
     2 O1B        144.0410    44.7890   -40.0220 O.co2        1 GDP402   0.0000
     3 O2B        144.3410    43.5910   -37.8620 O.co2        1 GDP402  -1.0000
     4 O3B        143.5840    42.3650   -39.9720 O.co2        1 GDP402  -1.0000
     5 O3A        141.9740    44.1470   -38.8210 O.3          1 GDP402   0.0000
     6 PA         140.6780    43.7750   -37.8870 P.3          1 GDP402   0.0000
     7 O1A        140.8860    44.0400   -36.4660 O.co2        1 GDP402   0.0000
     8 O2A        140.2270    42.3760   -38.2140 O.co2        1 GDP402  -1.0000
     9 O5'        139.6590    44.8520   -38.3370 O.3          1 GDP402   0.0000
    10 C5'        139.9330    45.8240   -39.3130 C.3          1 GDP402   0.0000
    11 C4'        138.5930    46.2630   -39.8520 C.3          1 GDP402   0.0000
    12 O4'        138.1870    47.4120   -39.1790 O.3          1 GDP402   0.0000
    13 C3'        138.5430    46.4950   -41.3360 C.3          1 GDP402   0.0000
    14 O3'        137.4070    45.7970   -41.8470 O.3          1 GDP402   0.0000
    15 C2'        138.4670    47.9410   -41.4550 C.3          1 GDP402   0.0000
    16 O2'        137.7150    48.4020   -42.5610 O.3          1 GDP402   0.0000
    17 C1'        137.8610    48.3810   -40.1290 C.3          1 GDP402   0.0000
    18 N9         138.3570    49.6420   -39.6010 N.pl3        1 GDP402   0.0000
    19 C8         139.6500    50.0260   -39.3410 C.2          1 GDP402   0.0000
    20 N7         139.6300    51.3020   -38.8760 N.2          1 GDP402   0.0000
    21 C5         138.3440    51.7190   -38.8380 C.2          1 GDP402   0.0000
    22 C6         137.7340    52.9120   -38.4600 C.2          1 GDP402   0.0000
    23 O6         138.3610    53.9210   -38.0560 O.2          1 GDP402   0.0000
    24 N1         136.3310    52.9610   -38.5580 N.2          1 GDP402   0.0000
    25 C2         135.5650    51.8780   -39.0090 C.2          1 GDP402   0.0000
    26 N2         134.2490    51.9970   -39.0800 N.pl3        1 GDP402   0.0000
    27 N3         136.1620    50.7220   -39.3820 N.pl3        1 GDP402   0.0000
    28 C4         137.5260    50.6680   -39.2860 C.2          1 GDP402   0.0000
    29 H5'1       140.4908    45.4333   -40.0453 H            1 GDP402   0.0000
    30 H5'2       140.4143    46.5998   -38.9050 H            1 GDP402   0.0000
    31 H4'        137.9335    45.5421   -39.6390 H            1 GDP402   0.0000
    32 H3'        139.3793    46.1563   -41.7671 H            1 GDP402   0.0000
    33 H5         137.6743    44.8683   -42.1040 H            1 GDP402   0.0000
    34 H2'        139.3950    48.3074   -41.5219 H            1 GDP402   0.0000
    35 H7         136.7755    48.0673   -42.4881 H            1 GDP402   0.0000
    36 H1'        136.8665    48.4307   -40.2214 H            1 GDP402   0.0000
    37 H9         140.4659    49.4628   -39.4716 H            1 GDP402   0.0000
    38 H10        133.6941    51.2294   -39.4007 H            1 GDP402   0.0000
    39 H11        133.8094    52.8546   -38.8130 H            1 GDP402   0.0000
    40 H12        135.6302    49.9424   -39.7129 H            1 GDP402   0.0000
@<TRIPOS>BOND
     1    1    2      ar
     2    1    3      ar
     3    1    4      ar
     4    1    5       1
     5    5    6       1
     6    6    7      ar
     7    6    8      ar
     8    6    9       1
     9    9   10       1
    10   10   11       1
    11   11   12       1
    12   11   13       1
    13   12   17       1
    14   13   14       1
    15   13   15       1
    16   15   16       1
    17   15   17       1
    18   17   18       1
    19   18   19       1
    20   18   28       1
    21   19   20       2
    22   20   21       1
    23   21   22       1
    24   21   28       2
    25   22   23       2
    26   22   24       1
    27   24   25       2
    28   25   26       1
    29   25   27       1
    30   27   28       1
    31   19   37       1
    32   26   39       1
    33   26   38       1
    34   10   29       1
    35   10   30       1
    36   11   31       1
    37   13   32       1
    38   14   33       1
    39   15   34       1
    40   16   35       1
    41   17   36       1
    42   27   40       1
@<TRIPOS>SUBSTRUCTURE
     1 GDP402      1 GROUP             4 C     GDP     0 **** GDP C 402
