@<TRIPOS>MOLECULE
3ete_NDP_11_ligand
   74    78     1     0     0
SMALL
NO_CHARGES


@<TRIPOS>ATOM
     1 PA          66.7850    23.1890   110.8710 P.3          1 NDP551   0.0000
     2 O1A         67.7930    23.6590   109.8990 O.co2        1 NDP551   0.0000
     3 O2A         65.3470    22.7870   110.2010 O.co2        1 NDP551  -1.0000
     4 O5B         67.4290    21.6480   110.6810 O.3          1 NDP551   0.0000
     5 C5B         67.5080    21.1470   109.3390 C.3          1 NDP551   0.0000
     6 C4B         68.0740    19.6930   109.3120 C.3          1 NDP551   0.0000
     7 O4B         67.2100    18.8100   110.1050 O.3          1 NDP551   0.0000
     8 C3B         68.0090    19.2360   107.8580 C.3          1 NDP551   0.0000
     9 O3B         69.2890    18.7850   107.3710 O.3          1 NDP551   0.0000
    10 C2B         66.9620    18.1080   107.9370 C.3          1 NDP551   0.0000
    11 O2B         67.1250    17.1900   106.8830 O.3          1 NDP551   0.0000
    12 C1B         67.2030    17.5480   109.3630 C.3          1 NDP551   0.0000
    13 N9A         66.0800    16.6220   109.7380 N.pl3        1 NDP551   0.0000
    14 C8A         64.7700    16.9590   109.9450 C.2          1 NDP551   0.0000
    15 N7A         64.0500    15.9130   110.2490 N.2          1 NDP551   0.0000
    16 C5A         64.8300    14.8210   110.2540 C.ar         1 NDP551   0.0000
    17 C6A         64.6180    13.4380   110.4960 C.ar         1 NDP551   0.0000
    18 N6A         63.3640    12.9380   110.8080 N.pl3        1 NDP551   0.0000
    19 N1A         65.6580    12.6190   110.4200 N.ar         1 NDP551   0.0000
    20 C2A         66.8810    13.0640   110.1150 C.ar         1 NDP551   0.0000
    21 N3A         67.1350    14.3440   109.8750 N.ar         1 NDP551   0.0000
    22 C4A         66.1550    15.2520   109.9330 C.ar         1 NDP551   0.0000
    23 O3          67.0450    22.5330   112.2790 O.3          1 NDP551   0.0000
    24 PN          66.3890    23.4710   113.2490 P.3          1 NDP551   0.0000
    25 O1N         64.9360    23.3060   113.5000 O.co2        1 NDP551   0.0000
    26 O2N         67.3740    24.2770   114.2740 O.co2        1 NDP551  -1.0000
    27 O5D         66.6840    22.2630   114.3350 O.3          1 NDP551   0.0000
    28 C5D         65.8480    22.5410   115.4800 C.3          1 NDP551   0.0000
    29 C4D         65.9140    21.5880   116.6750 C.3          1 NDP551   0.0000
    30 O4D         67.1110    22.0240   117.3870 O.3          1 NDP551   0.0000
    31 C3D         64.7310    21.9530   117.5790 C.3          1 NDP551   0.0000
    32 O3D         63.9590    20.8120   117.9070 O.3          1 NDP551   0.0000
    33 C2D         65.2100    22.6540   118.8190 C.3          1 NDP551   0.0000
    34 O2D         64.7600    22.0880   120.0650 O.3          1 NDP551   0.0000
    35 C1D         66.7030    22.6360   118.6770 C.3          1 NDP551   0.0000
    36 N1N         67.1530    24.0220   118.9270 N.pl3        1 NDP551   0.0000
    37 C2N         67.0060    25.0940   118.0040 C.2          1 NDP551   0.0000
    38 C3N         67.1410    26.4100   118.4600 C.2          1 NDP551   0.0000
    39 C7N         67.0280    27.5300   117.5760 C.2          1 NDP551   0.0000
    40 O7N         67.1604    28.6407   118.0153 O.2          1 NDP551   0.0000
    41 N7N         66.7610    27.3592   116.2447 N.am         1 NDP551   0.0000
    42 C4N         67.4390    26.6950   119.9080 C.3          1 NDP551   0.0000
    43 C5N         67.8620    25.4620   120.6690 C.2          1 NDP551   0.0000
    44 C6N         67.7140    24.2520   120.1830 C.2          1 NDP551   0.0000
    45 P2B         66.1380    17.6610   105.7000 P.3          1 NDP551   0.0000
    46 O1X         66.4390    19.0520   105.2880 O.co2        1 NDP551   0.0000
    47 O2X         66.3250    16.6280   104.4460 O.co2        1 NDP551  -1.0000
    48 O3X         64.6340    17.6080   106.2390 O.co2        1 NDP551  -1.0000
    49 H5B1        68.1088    21.7409   108.8039 H            1 NDP551   0.0000
    50 H5B2        66.5928    21.1483   108.9359 H            1 NDP551   0.0000
    51 H4B         69.0144    19.6701   109.6512 H            1 NDP551   0.0000
    52 H3B         67.6674    19.9787   107.2820 H            1 NDP551   0.0000
    53 H5          69.5661    19.3472   106.5918 H            1 NDP551   0.0000
    54 H2B         66.0455    18.5051   107.8894 H            1 NDP551   0.0000
    55 H1B         68.0881    17.0868   109.4256 H            1 NDP551   0.0000
    56 H8A         64.4096    17.8890   109.8726 H            1 NDP551   0.0000
    57 H6A1        63.2430    11.9593   110.9737 H            1 NDP551   0.0000
    58 H6A2        62.5800    13.5559   110.8675 H            1 NDP551   0.0000
    59 H2A         67.6333    12.4070   110.0658 H            1 NDP551   0.0000
    60 H5D1        64.9007    22.5492   115.1599 H            1 NDP551   0.0000
    61 H5D2        66.0952    23.4509   115.8130 H            1 NDP551   0.0000
    62 H4D         65.9341    20.6227   116.4147 H            1 NDP551   0.0000
    63 H3D         64.1438    22.5867   117.0754 H            1 NDP551   0.0000
    64 H16         64.0109    20.1486   117.1605 H            1 NDP551   0.0000
    65 H2D         64.9035    23.6050   118.7788 H            1 NDP551   0.0000
    66 H18         65.1295    22.6212   120.8260 H            1 NDP551   0.0000
    67 H1D         67.0685    22.0636   119.4110 H            1 NDP551   0.0000
    68 H2N         66.8086    24.9096   117.0412 H            1 NDP551   0.0000
    69 H7N1        66.6689    28.1556   115.6470 H            1 NDP551   0.0000
    70 H7N2        66.6580    26.4379   115.8696 H            1 NDP551   0.0000
    71 H4N1        66.6164    27.0689   120.3364 H            1 NDP551   0.0000
    72 H4N2        68.1759    27.3693   119.9563 H            1 NDP551   0.0000
    73 H5N         68.2695    25.5710   121.5757 H            1 NDP551   0.0000
    74 H6N         68.0129    23.4703   120.7304 H            1 NDP551   0.0000
@<TRIPOS>BOND
     1    1    2      ar
     2    1    3      ar
     3    1    4       1
     4    1   23       1
     5   45   48      ar
     6    4    5       1
     7    5    6       1
     8    6    7       1
     9    6    8       1
    10    7   12       1
    11    8    9       1
    12    8   10       1
    13   10   11       1
    14   10   12       1
    15   11   45       1
    16   12   13       1
    17   13   14       1
    18   13   22       1
    19   14   15       2
    20   15   16       1
    21   16   17      ar
    22   16   22      ar
    23   17   18       1
    24   17   19      ar
    25   19   20      ar
    26   20   21      ar
    27   21   22      ar
    28   23   24       1
    29   24   25      ar
    30   24   26      ar
    31   24   27       1
    32   27   28       1
    33   28   29       1
    34   29   30       1
    35   29   31       1
    36   30   35       1
    37   31   32       1
    38   31   33       1
    39   33   34       1
    40   33   35       1
    41   35   36       1
    42   36   37       1
    43   36   44       1
    44   37   38       2
    45   38   39       1
    46   38   42       1
    47   39   40       2
    48   39   41      am
    49   42   43       1
    50   43   44       2
    51   45   46      ar
    52   45   47      ar
    53   43   73       1
    54    5   49       1
    55    5   50       1
    56    6   51       1
    57    8   52       1
    58    9   53       1
    59   10   54       1
    60   12   55       1
    61   14   56       1
    62   18   57       1
    63   18   58       1
    64   20   59       1
    65   44   74       1
    66   28   60       1
    67   28   61       1
    68   29   62       1
    69   31   63       1
    70   32   64       1
    71   33   65       1
    72   34   66       1
    73   35   67       1
    74   37   68       1
    75   41   69       1
    76   41   70       1
    77   42   71       1
    78   42   72       1
@<TRIPOS>SUBSTRUCTURE
     1 NDP551      1 GROUP             4 C     NDP     0 **** NDP C 551
