@<TRIPOS>MOLECULE
2wn6_NDP_1_ligand
   73    77     1     0     0
SMALL
NO_CHARGES


@<TRIPOS>ATOM
     1 PA         -18.0110    -3.8250     8.6770 P.3          1 NDP1421   0.0000
     2 O1A        -16.9150    -2.9960     9.2280 O.co2        1 NDP1421   0.0000
     3 O2A        -19.0960    -3.1790     7.9030 O.co2        1 NDP1421  -1.0000
     4 O5B        -17.3810    -4.9830     7.7380 O.3          1 NDP1421   0.0000
     5 C5B        -18.2250    -5.9810     7.1420 C.3          1 NDP1421   0.0000
     6 C4B        -17.4090    -6.9840     6.3150 C.3          1 NDP1421   0.0000
     7 O4B        -16.6970    -6.2840     5.2660 O.3          1 NDP1421   0.0000
     8 C3B        -16.3660    -7.6100     7.2450 C.3          1 NDP1421   0.0000
     9 O3B        -16.6290    -9.0110     7.3190 O.3          1 NDP1421   0.0000
    10 C2B        -15.0040    -7.2900     6.5910 C.3          1 NDP1421   0.0000
    11 O2B        -14.0620    -8.4020     6.5940 O.3          1 NDP1421   0.0000
    12 C1B        -15.3730    -6.8390     5.1670 C.3          1 NDP1421   0.0000
    13 N9A        -14.4940    -5.7250     4.7020 N.pl3        1 NDP1421   0.0000
    14 C8A        -14.3740    -4.5230     5.2740 C.2          1 NDP1421   0.0000
    15 N7A        -13.4980    -3.7840     4.5930 N.2          1 NDP1421   0.0000
    16 C5A        -13.0590    -4.5120     3.5730 C.ar         1 NDP1421   0.0000
    17 C6A        -12.1560    -4.2810     2.5380 C.ar         1 NDP1421   0.0000
    18 N6A        -11.5210    -3.1150     2.4260 N.pl3        1 NDP1421   0.0000
    19 N1A        -11.9270    -5.2610     1.6460 N.ar         1 NDP1421   0.0000
    20 C2A        -12.5500    -6.4280     1.7380 C.ar         1 NDP1421   0.0000
    21 N3A        -13.4150    -6.6770     2.7120 N.ar         1 NDP1421   0.0000
    22 C4A        -13.6920    -5.7460     3.6410 C.ar         1 NDP1421   0.0000
    23 O3         -18.6900    -4.6660     9.8750 O.3          1 NDP1421   0.0000
    24 PN         -17.8570    -5.4320    11.0470 P.3          1 NDP1421   0.0000
    25 O1N        -16.4290    -5.0530    10.9710 O.co2        1 NDP1421   0.0000
    26 O2N        -18.2430    -6.8560    10.9560 O.co2        1 NDP1421  -1.0000
    27 O5D        -18.4900    -4.8120    12.4050 O.3          1 NDP1421   0.0000
    28 C5D        -19.9210    -4.7450    12.6300 C.3          1 NDP1421   0.0000
    29 C4D        -20.4020    -3.3020    12.9520 C.3          1 NDP1421   0.0000
    30 O4D        -19.5880    -2.6920    14.0050 O.3          1 NDP1421   0.0000
    31 C3D        -20.2860    -2.3890    11.7280 C.3          1 NDP1421   0.0000
    32 O3D        -21.3750    -1.4580    11.7260 O.3          1 NDP1421   0.0000
    33 C2D        -18.9810    -1.6430    11.9660 C.3          1 NDP1421   0.0000
    34 O2D        -19.0350    -0.3780    11.3130 O.3          1 NDP1421   0.0000
    35 C1D        -18.9810    -1.4640    13.4890 C.3          1 NDP1421   0.0000
    36 N1N        -17.6490    -1.3690    14.1590 N.ar         1 NDP1421   1.0000
    37 C2N        -16.6640    -2.3530    13.9370 C.ar         1 NDP1421   0.0000
    38 C3N        -15.4250    -2.2740    14.5740 C.ar         1 NDP1421   0.0000
    39 C7N        -14.3560    -3.3540    14.3310 C.2          1 NDP1421   0.0000
    40 O7N        -13.4190    -3.4940    15.1170 O.2          1 NDP1421   0.0000
    41 N7N        -14.5430    -4.1310    13.2600 N.am         1 NDP1421   0.0000
    42 C4N        -15.1640    -1.2110    15.4450 C.ar         1 NDP1421   0.0000
    43 C5N        -16.1330    -0.2310    15.6780 C.ar         1 NDP1421   0.0000
    44 C6N        -17.3760    -0.3100    15.0450 C.ar         1 NDP1421   0.0000
    45 P2B        -14.4340    -9.9790     6.2420 P.3          1 NDP1421   0.0000
    46 O1X        -14.9510   -10.6470     7.6420 O.co2        1 NDP1421   0.0000
    47 O2X        -13.0660   -10.7420     5.9390 O.co2        1 NDP1421  -1.0000
    48 O3X        -15.4150   -10.1420     5.1410 O.co2        1 NDP1421  -1.0000
    49 H5B1       -18.8890    -5.5310     6.5448 H            1 NDP1421   0.0000
    50 H5B2       -18.7079    -6.4733     7.8662 H            1 NDP1421   0.0000
    51 H4B        -18.0040    -7.6883     5.9278 H            1 NDP1421   0.0000
    52 H3B        -16.4199    -7.1980     8.1546 H            1 NDP1421   0.0000
    53 H5         -15.9595    -9.4444     7.9222 H            1 NDP1421   0.0000
    54 H2B        -14.5902    -6.5184     7.0741 H            1 NDP1421   0.0000
    55 H1B        -15.3506    -7.6076     4.5276 H            1 NDP1421   0.0000
    56 H8A        -14.8674    -4.2230     6.0904 H            1 NDP1421   0.0000
    57 H6A1       -10.8760    -2.9669     1.6763 H            1 NDP1421   0.0000
    58 H6A2       -11.6894    -2.3880     3.0916 H            1 NDP1421   0.0000
    59 H2A        -12.3633    -7.1365     1.0574 H            1 NDP1421   0.0000
    60 H5D1       -20.1536    -5.3404    13.3990 H            1 NDP1421   0.0000
    61 H5D2       -20.3910    -5.0643    11.8071 H            1 NDP1421   0.0000
    62 H4D        -21.3560    -3.3324    13.2501 H            1 NDP1421   0.0000
    63 H3D        -20.2554    -2.9174    10.8796 H            1 NDP1421   0.0000
    64 H16        -21.6525    -1.2676    12.6677 H            1 NDP1421   0.0000
    65 H2D        -18.1933    -2.1783    11.6610 H            1 NDP1421   0.0000
    66 H18        -18.1783     0.1140    11.4681 H            1 NDP1421   0.0000
    67 H1D        -19.5438    -0.6760    13.7385 H            1 NDP1421   0.0000
    68 H2N        -16.8550    -3.1144    13.3175 H            1 NDP1421   0.0000
    69 H7N1       -13.8850    -4.8527    13.0448 H            1 NDP1421   0.0000
    70 H7N2       -15.3409    -3.9908    12.6737 H            1 NDP1421   0.0000
    71 H4N        -14.2777    -1.1518    15.9043 H            1 NDP1421   0.0000
    72 H5N        -15.9363     0.5279    16.2988 H            1 NDP1421   0.0000
    73 H6N        -18.0719     0.3861    15.2215 H            1 NDP1421   0.0000
@<TRIPOS>BOND
     1    1    2      ar
     2    1    3      ar
     3    1    4       1
     4    1   23       1
     5    4    5       1
     6    5    6       1
     7    6    7       1
     8    6    8       1
     9    7   12       1
    10    8    9       1
    11    8   10       1
    12   10   11       1
    13   10   12       1
    14   11   45       1
    15   12   13       1
    16   13   14       1
    17   13   22       1
    18   14   15       2
    19   15   16       1
    20   16   17      ar
    21   16   22      ar
    22   17   18       1
    23   17   19      ar
    24   19   20      ar
    25   20   21      ar
    26   21   22      ar
    27   23   24       1
    28   24   25      ar
    29   24   26      ar
    30   24   27       1
    31   27   28       1
    32   28   29       1
    33   29   30       1
    34   29   31       1
    35   30   35       1
    36   31   32       1
    37   31   33       1
    38   33   34       1
    39   33   35       1
    40   35   36       1
    41   36   37      ar
    42   36   44      ar
    43   37   38      ar
    44   38   39       1
    45   38   42      ar
    46   39   40       2
    47   39   41      am
    48   42   43      ar
    49   43   44      ar
    50   45   46      ar
    51   45   47      ar
    52   45   48      ar
    53   43   72       1
    54    5   49       1
    55    5   50       1
    56    6   51       1
    57    8   52       1
    58    9   53       1
    59   10   54       1
    60   12   55       1
    61   14   56       1
    62   18   57       1
    63   18   58       1
    64   20   59       1
    65   44   73       1
    66   28   60       1
    67   28   61       1
    68   29   62       1
    69   31   63       1
    70   32   64       1
    71   33   65       1
    72   34   66       1
    73   35   67       1
    74   37   68       1
    75   41   69       1
    76   41   70       1
    77   42   71       1
@<TRIPOS>SUBSTRUCTURE
     1 NDP1421     1 GROUP             4 A     NDP     0 **** NDP A1421
