@<TRIPOS>MOLECULE
5ijz_NAP_9_ligand
   73    77     1     0     0
SMALL
NO_CHARGES


@<TRIPOS>ATOM
     1 PA          11.9240    -1.2220    66.3280 P.3          1 NAP501   0.0000
     2 O1A         13.0350    -0.9340    67.3280 O.co2        1 NAP501   0.0000
     3 O2A         12.3800    -1.9770    65.0890 O.co2        1 NAP501  -1.0000
     4 O5B         10.7310    -2.0970    67.0490 O.3          1 NAP501   0.0000
     5 C5B          9.3610    -2.1770    66.5760 C.3          1 NAP501   0.0000
     6 C4B          8.4950    -3.2010    67.3460 C.3          1 NAP501   0.0000
     7 O4B          7.1150    -3.2720    66.8870 O.3          1 NAP501   0.0000
     8 C3B          9.0300    -4.6330    67.2290 C.3          1 NAP501   0.0000
     9 O3B          9.1170    -5.2670    68.5110 O.3          1 NAP501   0.0000
    10 C2B          8.0070    -5.3260    66.3400 C.3          1 NAP501   0.0000
    11 O2B          8.0380    -6.7660    66.4170 O.3          1 NAP501   0.0000
    12 C1B          6.7080    -4.6630    66.8020 C.3          1 NAP501   0.0000
    13 N9A          5.5000    -5.0290    65.9630 N.pl3        1 NAP501   0.0000
    14 C8A          5.4580    -5.3460    64.6380 C.2          1 NAP501   0.0000
    15 N7A          4.1870    -5.6560    64.2430 N.2          1 NAP501   0.0000
    16 C5A          3.3730    -5.5510    65.3250 C.ar         1 NAP501   0.0000
    17 C6A          1.9120    -5.7270    65.6390 C.ar         1 NAP501   0.0000
    18 N6A          1.0310    -6.0910    64.6820 N.pl3        1 NAP501   0.0000
    19 N1A          1.4780    -5.5160    66.9170 N.ar         1 NAP501   0.0000
    20 C2A          2.3260    -5.1500    67.9060 C.ar         1 NAP501   0.0000
    21 N3A          3.6580    -4.9730    67.6910 N.ar         1 NAP501   0.0000
    22 C4A          4.2450    -5.1510    66.4580 C.ar         1 NAP501   0.0000
    23 O3          11.1590     0.1640    65.8640 O.3          1 NAP501   0.0000
    24 PN          10.8980     1.5470    66.7130 P.3          1 NAP501   0.0000
    25 O1N         10.7030     1.2080    68.1730 O.co2        1 NAP501   0.0000
    26 O2N         11.9800     2.5600    66.3750 O.co2        1 NAP501  -1.0000
    27 O5D          9.5100     2.1440    66.1120 O.3          1 NAP501   0.0000
    28 C5D          8.2730     2.1460    66.8420 C.3          1 NAP501   0.0000
    29 C4D          7.2110     3.1170    66.2940 C.3          1 NAP501   0.0000
    30 O4D          7.4680     4.4330    66.8000 O.3          1 NAP501   0.0000
    31 C3D          7.1440     3.2420    64.7730 C.3          1 NAP501   0.0000
    32 O3D          5.7780     3.2250    64.3240 O.3          1 NAP501   0.0000
    33 C2D          7.8120     4.5770    64.4680 C.3          1 NAP501   0.0000
    34 O2D          7.2810     5.1710    63.2690 O.3          1 NAP501   0.0000
    35 C1D          7.5620     5.3950    65.7390 C.3          1 NAP501   0.0000
    36 N1N          8.5860     6.4190    66.0630 N.ar         1 NAP501   1.0000
    37 C2N          9.8040     6.0510    66.5020 C.ar         1 NAP501   0.0000
    38 C3N         10.7880     6.9930    66.8260 C.ar         1 NAP501   0.0000
    39 C7N         12.1210     6.4860    67.2990 C.2          1 NAP501   0.0000
    40 O7N         12.6481     7.0107    68.2707 O.2          1 NAP501   0.0000
    41 N7N         12.6987     5.4685    66.6652 N.am         1 NAP501   0.0000
    42 C4N         10.5250     8.4860    66.7080 C.ar         1 NAP501   0.0000
    43 C5N          9.1780     8.7630    66.2240 C.ar         1 NAP501   0.0000
    44 C6N          8.2750     7.7270    65.9330 C.ar         1 NAP501   0.0000
    45 P2B          8.9550    -7.6460    65.3950 P.3          1 NAP501   0.0000
    46 O1X          8.6120    -7.1660    63.9930 O.co2        1 NAP501   0.0000
    47 O2X         10.3600    -7.3290    65.8550 O.co2        1 NAP501  -1.0000
    48 O3X          8.5430    -9.0810    65.6350 O.co2        1 NAP501  -1.0000
    49 H5B1         9.3752    -2.4383    65.6108 H            1 NAP501   0.0000
    50 H5B2         8.9413    -1.2743    66.6708 H            1 NAP501   0.0000
    51 H4B          8.4915    -2.9452    68.3127 H            1 NAP501   0.0000
    52 H3B          9.9260    -4.6303    66.7850 H            1 NAP501   0.0000
    53 H5          10.0657    -5.5276    68.6903 H            1 NAP501   0.0000
    54 H2B          8.1788    -5.0570    65.3923 H            1 NAP501   0.0000
    55 H1B          6.5289    -4.9777    67.7341 H            1 NAP501   0.0000
    56 H8A          6.2543    -5.3511    64.0331 H            1 NAP501   0.0000
    57 H6A1         0.0637    -6.2031    64.9094 H            1 NAP501   0.0000
    58 H6A2         1.3461    -6.2483    63.7461 H            1 NAP501   0.0000
    59 H2A          1.9616    -5.0047    68.8258 H            1 NAP501   0.0000
    60 H5D1         8.4694     2.3998    67.7891 H            1 NAP501   0.0000
    61 H5D2         7.8936     1.2211    66.8166 H            1 NAP501   0.0000
    62 H4D          6.3146     2.8222    66.6251 H            1 NAP501   0.0000
    63 H3D          7.6552     2.4968    64.3447 H            1 NAP501   0.0000
    64 H16          5.3478     2.3648    64.5978 H            1 NAP501   0.0000
    65 H2D          8.7955     4.4347    64.3567 H            1 NAP501   0.0000
    66 H18          8.0166     5.2906    62.6022 H            1 NAP501   0.0000
    67 H1D          6.6772     5.8523    65.6498 H            1 NAP501   0.0000
    68 H2N         10.0120     5.0777    66.5995 H            1 NAP501   0.0000
    69 H7N1        13.5752     5.1112    66.9879 H            1 NAP501   0.0000
    70 H7N2        12.2563     5.0611    65.8663 H            1 NAP501   0.0000
    71 H4N         11.1952     9.1926    66.9350 H            1 NAP501   0.0000
    72 H5N          8.8903     9.7122    66.0962 H            1 NAP501   0.0000
    73 H6N          7.3586     7.9693    65.6145 H            1 NAP501   0.0000
@<TRIPOS>BOND
     1    1    2      ar
     2    1    3      ar
     3    1    4       1
     4    1   23       1
     5    4    5       1
     6    5    6       1
     7    6    7       1
     8    6    8       1
     9    7   12       1
    10    8    9       1
    11    8   10       1
    12   10   11       1
    13   10   12       1
    14   11   45       1
    15   12   13       1
    16   13   14       1
    17   13   22       1
    18   14   15       2
    19   15   16       1
    20   16   17      ar
    21   16   22      ar
    22   17   18       1
    23   17   19      ar
    24   19   20      ar
    25   20   21      ar
    26   21   22      ar
    27   23   24       1
    28   24   25      ar
    29   24   26      ar
    30   24   27       1
    31   27   28       1
    32   28   29       1
    33   29   30       1
    34   29   31       1
    35   30   35       1
    36   31   32       1
    37   31   33       1
    38   33   34       1
    39   33   35       1
    40   35   36       1
    41   36   37      ar
    42   36   44      ar
    43   37   38      ar
    44   38   39       1
    45   38   42      ar
    46   39   40       2
    47   39   41      am
    48   42   43      ar
    49   43   44      ar
    50   45   46      ar
    51   45   47      ar
    52   45   48      ar
    53   43   72       1
    54    5   49       1
    55    5   50       1
    56    6   51       1
    57    8   52       1
    58    9   53       1
    59   10   54       1
    60   12   55       1
    61   14   56       1
    62   18   57       1
    63   18   58       1
    64   20   59       1
    65   44   73       1
    66   28   60       1
    67   28   61       1
    68   29   62       1
    69   31   63       1
    70   32   64       1
    71   33   65       1
    72   34   66       1
    73   35   67       1
    74   37   68       1
    75   41   69       1
    76   41   70       1
    77   42   71       1
@<TRIPOS>SUBSTRUCTURE
     1 NAP501      1 GROUP             4 J     NAP     0 **** NAP J 501
