@<TRIPOS>MOLECULE
4pkl_1GH_2_ligand
   52    56     1     0     0
SMALL
NO_CHARGES


@<TRIPOS>ATOM
     1 O2          46.3270    40.0980    27.0100 O.2          1 1GH201   0.0000
     2 C13         45.9240    40.3920    25.9040 C.2          1 1GH201   0.0000
     3 N1          46.4380    41.4020    25.0750 N.pl3        1 1GH201   0.0000
     4 C6          47.4370    42.3040    25.5730 C.3          1 1GH201   0.0000
     5 C8          48.7420    42.4710    24.8700 C.ar         1 1GH201   0.0000
     6 N2          49.1850    41.4530    24.1050 N.ar         1 1GH201   0.0000
     7 C12         50.3890    41.5910    23.4980 C.ar         1 1GH201   0.0000
     8 C11         51.1440    42.7390    23.6720 C.ar         1 1GH201   0.0000
     9 C10         50.6860    43.7600    24.4510 C.ar         1 1GH201   0.0000
    10 C9          49.4800    43.6330    25.0670 C.ar         1 1GH201   0.0000
    11 C7          46.7680    43.6680    25.7970 C.3          1 1GH201   0.0000
    12 N3          44.8930    39.7540    25.2370 N.pl3        1 1GH201   0.0000
    13 C14         44.7260    40.3800    23.9670 C.ar         1 1GH201   0.0000
    14 C5          45.6510    41.4050    23.8480 C.ar         1 1GH201   0.0000
    15 C15         43.8020    40.0830    22.9660 C.ar         1 1GH201   0.0000
    16 N4          43.8200    40.8070    21.8240 N.ar         1 1GH201   0.0000
    17 C16         44.7470    41.8310    21.6580 C.ar         1 1GH201   0.0000
    18 C4          45.6690    42.1490    22.6450 C.ar         1 1GH201   0.0000
    19 C3          46.5760    43.1980    22.4070 C.ar         1 1GH201   0.0000
    20 C17         44.7260    42.5360    20.4480 C.ar         1 1GH201   0.0000
    21 C18         45.6210    43.5690    20.2060 C.ar         1 1GH201   0.0000
    22 C2          46.5540    43.8820    21.1990 C.ar         1 1GH201   0.0000
    23 O1          47.4200    44.8980    20.8030 O.3          1 1GH201   0.0000
    24 C1          48.5000    45.1570    21.6790 C.3          1 1GH201   0.0000
    25 C19         45.4460    44.2020    18.8280 C.2          1 1GH201   0.0000
    26 C22         45.4610    45.5470    18.5090 C.2          1 1GH201   0.0000
    27 C23         45.6490    46.7500    19.4030 C.3          1 1GH201   0.0000
    28 O3          45.2750    45.6770    17.1870 O.2          1 1GH201   0.0000
    29 N5          45.1350    44.4280    16.6290 N.2          1 1GH201   0.0000
    30 C20         45.2470    43.5340    17.6200 C.2          1 1GH201   0.0000
    31 C21         45.1390    42.0500    17.3320 C.3          1 1GH201   0.0000
    32 H1          47.6678    41.9677    26.4860 H            1 1GH201   0.0000
    33 H2          50.7365    40.8548    22.9173 H            1 1GH201   0.0000
    34 H3          52.0334    42.8198    23.2221 H            1 1GH201   0.0000
    35 H4          51.2296    44.5912    24.5679 H            1 1GH201   0.0000
    36 H5          49.1295    44.3640    25.6525 H            1 1GH201   0.0000
    37 H6          47.4439    44.3176    26.1451 H            1 1GH201   0.0000
    38 H7          46.3979    44.0040    24.9309 H            1 1GH201   0.0000
    39 H8          46.0265    43.5706    26.4609 H            1 1GH201   0.0000
    40 H9          44.3568    38.9854    25.5860 H            1 1GH201   0.0000
    41 H10         43.1369    39.3467    23.0905 H            1 1GH201   0.0000
    42 H11         47.2393    43.4520    23.1109 H            1 1GH201   0.0000
    43 H12         44.0557    42.2913    19.7474 H            1 1GH201   0.0000
    44 H13         49.0596    45.8981    21.3082 H            1 1GH201   0.0000
    45 H14         48.1456    45.4233    22.5754 H            1 1GH201   0.0000
    46 H15         49.0582    44.3326    21.7727 H            1 1GH201   0.0000
    47 H16         45.6062    47.5840    18.8529 H            1 1GH201   0.0000
    48 H17         44.9258    46.7685    20.0934 H            1 1GH201   0.0000
    49 H18         46.5395    46.6939    19.8545 H            1 1GH201   0.0000
    50 H19         44.9960    41.9101    16.3522 H            1 1GH201   0.0000
    51 H20         45.9827    41.5934    17.6142 H            1 1GH201   0.0000
    52 H21         44.3670    41.6673    17.8395 H            1 1GH201   0.0000
@<TRIPOS>BOND
     1    1    2       2
     2    2    3       1
     3    2   12       1
     4    3    4       1
     5    3   14       1
     6    4    5       1
     7    4   11       1
     8    5    6      ar
     9    5   10      ar
    10    6    7      ar
    11    7    8      ar
    12    8    9      ar
    13    9   10      ar
    14   12   13       1
    15   13   14      ar
    16   13   15      ar
    17   14   18      ar
    18   15   16      ar
    19   16   17      ar
    20   17   18      ar
    21   17   20      ar
    22   18   19      ar
    23   19   22      ar
    24   20   21      ar
    25   21   22      ar
    26   21   25       1
    27   22   23       1
    28   23   24       1
    29   25   26       2
    30   25   30       1
    31   26   27       1
    32   26   28       1
    33   28   29       1
    34   29   30       2
    35   30   31       1
    36    4   32       1
    37    7   33       1
    38    8   34       1
    39    9   35       1
    40   10   36       1
    41   11   37       1
    42   11   38       1
    43   11   39       1
    44   12   40       1
    45   15   41       1
    46   19   42       1
    47   20   43       1
    48   24   44       1
    49   24   45       1
    50   24   46       1
    51   27   47       1
    52   27   48       1
    53   27   49       1
    54   31   50       1
    55   31   51       1
    56   31   52       1
@<TRIPOS>SUBSTRUCTURE
     1 1GH201      1 GROUP             4 B     1GH     0 **** 1GH B 201
