@<TRIPOS>MOLECULE
4mq2_2C4_2_ligand
   40    42     1     0     0
SMALL
NO_CHARGES


@<TRIPOS>ATOM
     1 N3         -19.4490   -13.4170   -65.2410 N.ar         1 2C4501   0.0000
     2 C4         -18.6850   -13.9740   -66.2040 C.ar         1 2C4501   0.0000
     3 C6         -17.0660   -15.6320   -66.4610 C.3          1 2C4501   0.0000
     4 C8         -18.5900   -11.9640   -67.3970 C.ar         1 2C4501   0.0000
     5 C10        -18.5530    -9.8660   -68.6370 C.2          1 2C4501   0.0000
     6 C13        -19.7280    -9.9850   -66.5690 C.2          1 2C4501   0.0000
     7 C17        -19.2240    -5.7890   -68.8510 C.ar         1 2C4501   0.0000
     8 C20        -19.2520    -3.0510   -69.4020 C.ar         1 2C4501   0.0000
     9 C21        -18.8170    -3.9490   -70.3550 C.ar         1 2C4501   0.0000
    10 C22        -18.7950    -5.3020   -70.0630 C.ar         1 2C4501   0.0000
    11 C24        -20.0740    -2.5760   -67.2040 C.2          1 2C4501   0.0000
    12 O11        -18.1530    -9.2530   -69.6360 O.2          1 2C4501   0.0000
    13 N9         -18.1970   -11.2210   -68.5120 N.pl3        1 2C4501   0.0000
    14 N7         -18.2460   -13.2650   -67.2740 N.ar         1 2C4501   0.0000
    15 O5         -18.3810   -15.2860   -66.0350 O.3          1 2C4501   0.0000
    16 C2         -19.8120   -12.0550   -65.3490 C.ar         1 2C4501   0.0000
    17 C1         -19.3820   -11.3250   -66.4440 C.ar         1 2C4501   0.0000
    18 C12        -19.3180    -9.2380   -67.6550 C.2          1 2C4501   0.0000
    19 C14        -19.6590    -7.8890   -67.7130 C.2          1 2C4501   0.0000
    20 O15        -20.3760    -7.4460   -66.8220 O.2          1 2C4501   0.0000
    21 N16        -19.0820    -7.1270   -68.7180 N.am         1 2C4501   0.0000
    22 C18        -19.6440    -4.8820   -67.8850 C.ar         1 2C4501   0.0000
    23 CL2        -18.2250    -6.3380   -71.2740 Cl           1 2C4501   0.0000
    24 C19        -19.6530    -3.5160   -68.1510 C.ar         1 2C4501   0.0000
    25 O25        -19.9660    -1.3570   -67.4250 O.2          1 2C4501   0.0000
    26 O26        -20.5380    -3.1330   -66.0450 O.3          1 2C4501   0.0000
    27 C27        -20.3870    -2.4200   -64.8100 C.3          1 2C4501   0.0000
    28 H1         -16.9120   -16.6081   -66.3078 H            1 2C4501   0.0000
    29 H2         -16.9665   -15.4277   -67.4348 H            1 2C4501   0.0000
    30 H3         -16.3966   -15.1030   -65.9394 H            1 2C4501   0.0000
    31 H4         -20.2845    -9.5537   -65.8589 H            1 2C4501   0.0000
    32 H5         -19.2793    -2.0728   -69.6077 H            1 2C4501   0.0000
    33 H6         -18.5190    -3.6239   -71.2525 H            1 2C4501   0.0000
    34 H7         -17.6557   -11.6577   -69.2306 H            1 2C4501   0.0000
    35 H8         -20.3730   -11.6237   -64.6425 H            1 2C4501   0.0000
    36 H9         -18.5193    -7.6024   -69.3943 H            1 2C4501   0.0000
    37 H10        -19.9426    -5.2142   -66.9903 H            1 2C4501   0.0000
    38 H11        -20.7755    -2.9603   -64.0635 H            1 2C4501   0.0000
    39 H12        -19.4157    -2.2591   -64.6346 H            1 2C4501   0.0000
    40 H13        -20.8645    -1.5434   -64.8706 H            1 2C4501   0.0000
@<TRIPOS>BOND
     1    1    2      ar
     2    1   16      ar
     3    2   14      ar
     4    2   15       1
     5    3   15       1
     6    4   13       1
     7    4   14      ar
     8    4   17      ar
     9    5   12       2
    10    5   13       1
    11    5   18       1
    12    6   17       1
    13    6   18       2
    14    7   10      ar
    15    7   21       1
    16    7   22      ar
    17    8    9      ar
    18    8   24      ar
    19    9   10      ar
    20   10   23       1
    21   11   24       1
    22   11   25       2
    23   11   26       1
    24   16   17      ar
    25   18   19       1
    26   19   20       2
    27   19   21      am
    28   22   24      ar
    29   26   27       1
    30    3   28       1
    31    3   29       1
    32    3   30       1
    33    6   31       1
    34    8   32       1
    35    9   33       1
    36   13   34       1
    37   16   35       1
    38   21   36       1
    39   22   37       1
    40   27   38       1
    41   27   39       1
    42   27   40       1
@<TRIPOS>SUBSTRUCTURE
     1 2C4501      1 GROUP             4 B     2C4     0 **** 2C4 B 501
