@<TRIPOS>MOLECULE
3kmt_SAH_4_ligand
   46    48     1     0     0
SMALL
NO_CHARGES


@<TRIPOS>ATOM
     1 N            3.7210   -15.2620    13.1950 N.4          1 SAH120   1.0000
     2 CA           3.4760   -15.9380    11.9700 C.3          1 SAH120   0.0000
     3 CB           2.2620   -15.3540    11.2890 C.3          1 SAH120   0.0000
     4 CG           1.0130   -16.0660    11.6630 C.3          1 SAH120   0.0000
     5 SD           0.9370   -17.7250    11.1690 S.3          1 SAH120   0.0000
     6 C            4.7070   -15.8470    11.1420 C.2          1 SAH120   0.0000
     7 O            4.6080   -16.3820    10.1030 O.co2        1 SAH120   0.0000
     8 OXT          5.7330   -15.2700    11.5100 O.co2        1 SAH120  -1.0000
     9 C5'          0.3460   -18.6990    12.4640 C.3          1 SAH120   0.0000
    10 C4'          1.3510   -18.9640    13.5710 C.3          1 SAH120   0.0000
    11 O4'          1.7610   -17.8160    14.2080 O.3          1 SAH120   0.0000
    12 C3'          0.8520   -19.8490    14.7090 C.3          1 SAH120   0.0000
    13 O3'          0.6770   -21.1650    14.4610 O.3          1 SAH120   0.0000
    14 C2'          1.8680   -19.5310    15.7590 C.3          1 SAH120   0.0000
    15 O2'          3.0630   -20.2720    15.6260 O.3          1 SAH120   0.0000
    16 C1'          2.0280   -18.0230    15.5460 C.3          1 SAH120   0.0000
    17 N9           1.1060   -17.2300    16.4260 N.pl3        1 SAH120   0.0000
    18 C8           0.1160   -16.4120    16.1040 C.2          1 SAH120   0.0000
    19 N7          -0.4650   -15.8980    17.1160 N.2          1 SAH120   0.0000
    20 C5           0.0930   -16.3310    18.1840 C.ar         1 SAH120   0.0000
    21 C6          -0.0970   -16.1280    19.6080 C.ar         1 SAH120   0.0000
    22 N6          -1.0030   -15.3560    20.1090 N.pl3        1 SAH120   0.0000
    23 N1           0.7730   -16.8290    20.4090 N.ar         1 SAH120   0.0000
    24 C2           1.7090   -17.6260    19.9230 C.ar         1 SAH120   0.0000
    25 N3           1.9140   -17.8350    18.6550 N.ar         1 SAH120   0.0000
    26 C4           1.1560   -17.2310    17.7460 C.ar         1 SAH120   0.0000
    27 H1           4.1509   -15.8910    13.8427 H            1 SAH120   0.0000
    28 H2           4.3290   -14.4852    13.0312 H            1 SAH120   0.0000
    29 HA           3.2967   -16.9015    12.1686 H            1 SAH120   0.0000
    30 HB1          2.3857   -15.4188    10.2988 H            1 SAH120   0.0000
    31 HB2          2.1761   -14.3930    11.5520 H            1 SAH120   0.0000
    32 HG1          0.2438   -15.5827    11.2450 H            1 SAH120   0.0000
    33 HG2          0.9249   -16.0348    12.6586 H            1 SAH120   0.0000
    34 H5'1         0.0603   -19.5795    12.0858 H            1 SAH120   0.0000
    35 H5'2        -0.4445   -18.2365    12.8656 H            1 SAH120   0.0000
    36 H4'          2.1544   -19.4001    13.1656 H            1 SAH120   0.0000
    37 H3'         -0.0253   -19.4802    15.0161 H            1 SAH120   0.0000
    38 H12         -0.2568   -21.3223    14.1395 H            1 SAH120   0.0000
    39 H2'          1.4737   -19.6978    16.6627 H            1 SAH120   0.0000
    40 H14          2.8606   -21.1595    15.2121 H            1 SAH120   0.0000
    41 H1'          2.9738   -17.7611    15.7381 H            1 SAH120   0.0000
    42 H16         -0.1499   -16.2165    15.1600 H            1 SAH120   0.0000
    43 H17         -1.0836   -15.2578    21.1009 H            1 SAH120   0.0000
    44 H18         -1.6240   -14.8564    19.5050 H            1 SAH120   0.0000
    45 H19          2.3003   -18.1011    20.5747 H            1 SAH120   0.0000
    46 H20          2.8555   -14.9339    13.5735 H            1 SAH120   0.0000
@<TRIPOS>BOND
     1    1    2       1
     2    2    3       1
     3    2    6       1
     4    3    4       1
     5    4    5       1
     6    5    9       1
     7    6    7      ar
     8    6    8      ar
     9    9   10       1
    10   10   11       1
    11   10   12       1
    12   11   16       1
    13   12   13       1
    14   12   14       1
    15   14   15       1
    16   14   16       1
    17   16   17       1
    18   17   18       1
    19   17   26       1
    20   18   19       2
    21   19   20       1
    22   20   21      ar
    23   20   26      ar
    24   21   22       1
    25   21   23      ar
    26   23   24      ar
    27   24   25      ar
    28   25   26      ar
    29    1   27       1
    30    1   28       1
    31    2   29       1
    32    3   30       1
    33    3   31       1
    34    4   32       1
    35    4   33       1
    36    1   46       1
    37    9   34       1
    38    9   35       1
    39   10   36       1
    40   12   37       1
    41   13   38       1
    42   14   39       1
    43   15   40       1
    44   16   41       1
    45   18   42       1
    46   22   43       1
    47   22   44       1
    48   24   45       1
@<TRIPOS>SUBSTRUCTURE
     1 SAH120      1 GROUP             4 C     SAH     0 **** SAH C 120
