@<TRIPOS>MOLECULE
2d7z_MAE_1_ligand
   10     9     1     0     0
SMALL
NO_CHARGES


@<TRIPOS>ATOM
     1 C1          24.8930    10.0770   -11.5580 C.2          1 MAE414   0.0000
     2 O1          25.1020     9.3180   -10.5870 O.co2        1 MAE414   0.0000
     3 O2          25.6470    11.0230   -11.8730 O.co2        1 MAE414  -1.0000
     4 C2          23.7350     9.8580   -12.3000 C.2          1 MAE414   0.0000
     5 C3          23.4450    10.4600   -13.5220 C.2          1 MAE414   0.0000
     6 C4          24.2890    11.3610   -14.1630 C.2          1 MAE414   0.0000
     7 O3          23.8760    12.5300   -14.3240 O.co2        1 MAE414   0.0000
     8 O4          25.4150    10.9580   -14.5280 O.co2        1 MAE414  -1.0000
     9 H1          23.0608     9.2204   -11.9273 H            1 MAE414   0.0000
    10 H2          22.5783    10.2308   -13.9650 H            1 MAE414   0.0000
@<TRIPOS>BOND
     1    1    2      ar
     2    1    3      ar
     3    1    4       1
     4    4    5       2
     5    5    6       1
     6    6    7      ar
     7    6    8      ar
     8    5   10       1
     9    4    9       1
@<TRIPOS>SUBSTRUCTURE
     1 MAE414      1 GROUP             4 A     MAE     0 **** MAE A 414
