@<TRIPOS>MOLECULE
1zd9_GDP_1_ligand
   40    42     1     0     0
SMALL
NO_CHARGES


@<TRIPOS>ATOM
     1 PB          44.4890    64.4830   -13.9450 P.3          1 GDP201   0.0000
     2 O1B         45.3080    63.5980   -13.0370 O.co2        1 GDP201   0.0000
     3 O2B         43.4060    63.7370   -14.7580 O.co2        1 GDP201  -1.0000
     4 O3B         45.4060    65.2170   -14.9020 O.co2        1 GDP201  -1.0000
     5 O3A         43.6710    65.5840   -13.1190 O.3          1 GDP201   0.0000
     6 PA          43.9570    66.0210   -11.5990 P.3          1 GDP201   0.0000
     7 O1A         43.6080    64.9400   -10.6240 O.co2        1 GDP201   0.0000
     8 O2A         45.3100    66.6530   -11.4370 O.co2        1 GDP201  -1.0000
     9 O5'         42.8100    67.1260   -11.3870 O.3          1 GDP201   0.0000
    10 C5'         42.8900    68.3070   -12.1980 C.3          1 GDP201   0.0000
    11 C4'         42.2820    69.4790   -11.4250 C.3          1 GDP201   0.0000
    12 O4'         40.8770    69.2650   -11.3090 O.3          1 GDP201   0.0000
    13 C3'         42.8460    69.6230   -10.0140 C.3          1 GDP201   0.0000
    14 O3'         42.9380    71.0150    -9.6570 O.3          1 GDP201   0.0000
    15 C2'         41.7930    68.9830    -9.1360 C.3          1 GDP201   0.0000
    16 O2'         41.7210    69.5920    -7.8410 O.3          1 GDP201   0.0000
    17 C1'         40.5400    69.3000    -9.9210 C.3          1 GDP201   0.0000
    18 N9          39.4400    68.3720    -9.6160 N.pl3        1 GDP201   0.0000
    19 C8          39.4950    67.0070    -9.5530 C.2          1 GDP201   0.0000
    20 N7          38.2640    66.5250    -9.2620 N.2          1 GDP201   0.0000
    21 C5          37.4070    67.5820    -9.1250 C.2          1 GDP201   0.0000
    22 C6          35.9550    67.7700    -8.8400 C.2          1 GDP201   0.0000
    23 O6          35.1810    66.7940    -8.6200 O.2          1 GDP201   0.0000
    24 N1          35.4760    69.0300    -8.8270 N.pl3        1 GDP201   0.0000
    25 C2          36.2740    70.1110    -9.0530 C.2          1 GDP201   0.0000
    26 N2          35.7370    71.3590    -9.0100 N.pl3        1 GDP201   0.0000
    27 N3          37.5930    70.0190    -9.3310 N.2          1 GDP201   0.0000
    28 C4          38.1960    68.7940    -9.3760 C.2          1 GDP201   0.0000
    29 H5'1        42.3826    68.1658   -13.0480 H            1 GDP201   0.0000
    30 H5'2        43.8470    68.5048   -12.4100 H            1 GDP201   0.0000
    31 H4'         42.4444    70.3258   -11.9315 H            1 GDP201   0.0000
    32 H3'         43.7288    69.1620    -9.9232 H            1 GDP201   0.0000
    33 H5          43.3082    71.0981    -8.7318 H            1 GDP201   0.0000
    34 H2'         41.9341    67.9956    -9.0637 H            1 GDP201   0.0000
    35 H7          41.9144    68.9065    -7.1391 H            1 GDP201   0.0000
    36 H1'         40.2463    70.2273    -9.6891 H            1 GDP201   0.0000
    37 H9          40.3146    66.4529    -9.6988 H            1 GDP201   0.0000
    38 H10         34.5035    69.1760    -8.6456 H            1 GDP201   0.0000
    39 H11         36.3152    72.1581    -9.1746 H            1 GDP201   0.0000
    40 H12         34.7637    71.4780    -8.8137 H            1 GDP201   0.0000
@<TRIPOS>BOND
     1    1    2      ar
     2    1    3      ar
     3    1    4      ar
     4    1    5       1
     5    5    6       1
     6    6    7      ar
     7    6    8      ar
     8    6    9       1
     9    9   10       1
    10   10   11       1
    11   11   12       1
    12   11   13       1
    13   12   17       1
    14   13   14       1
    15   13   15       1
    16   15   16       1
    17   15   17       1
    18   17   18       1
    19   18   19       1
    20   18   28       1
    21   19   20       2
    22   20   21       1
    23   21   22       1
    24   21   28       2
    25   22   23       2
    26   22   24       1
    27   24   25       1
    28   25   26       1
    29   25   27       2
    30   27   28       1
    31   26   40       1
    32   26   39       1
    33   24   38       1
    34   10   29       1
    35   10   30       1
    36   11   31       1
    37   13   32       1
    38   14   33       1
    39   15   34       1
    40   16   35       1
    41   17   36       1
    42   19   37       1
@<TRIPOS>SUBSTRUCTURE
     1 GDP201      1 GROUP             4 A     GDP     0 **** GDP A 201
