@<TRIPOS>MOLECULE
4ekl_0RF_1_ligand
   65    68     1     0     0
SMALL
NO_CHARGES


@<TRIPOS>ATOM
     1 N1          26.1470     7.5890     8.0150 N.ar         1 0RF501   0.0000
     2 C2          25.1600     7.9790     7.1710 C.ar         1 0RF501   0.0000
     3 N3          24.0210     7.2970     6.9590 N.ar         1 0RF501   0.0000
     4 C4          23.9010     6.0920     7.5630 C.ar         1 0RF501   0.0000
     5 C5          24.8660     5.6290     8.4410 C.ar         1 0RF501   0.0000
     6 C6          26.0400     6.4140     8.6620 C.ar         1 0RF501   0.0000
     7 C7          22.7300     5.1360     7.4100 C.3          1 0RF501   0.0000
     8 C8          22.9610     4.1540     8.5900 C.3          1 0RF501   0.0000
     9 C9          24.4760     4.2580     9.0140 C.3          1 0RF501   0.0000
    10 N10         27.1420     6.1680     9.4410 N.pl3        1 0RF501   0.0000
    11 C11         25.3100     3.1230     8.3060 C.3          1 0RF501   0.0000
    12 O12         21.4930     5.8140     7.4390 O.3          1 0RF501   0.0000
    13 C13         28.2950     7.0940     9.3590 C.3          1 0RF501   0.0000
    14 C14         28.6420     7.6690    10.7190 C.3          1 0RF501   0.0000
    15 N15         28.7460     6.5550    11.7180 N.am         1 0RF501   0.0000
    16 C16         27.4960     5.7990    11.8070 C.3          1 0RF501   0.0000
    17 C17         27.2910     5.0920    10.4760 C.3          1 0RF501   0.0000
    18 C18         29.8900     6.2380    12.3930 C.2          1 0RF501   0.0000
    19 C19         29.9500     4.9860    13.2930 C.3          1 0RF501   0.0000
    20 O20         30.9420     6.8670    12.2480 O.2          1 0RF501   0.0000
    21 C21         30.1590     3.7470    12.4600 C.ar         1 0RF501   0.0000
    22 C22         31.0950     5.0640    14.3390 C.3          1 0RF501   0.0000
    23 N23         30.8550     6.2210    15.2380 N.4          1 0RF501   1.0000
    24 C24         29.3690     2.6180    12.7260 C.ar         1 0RF501   0.0000
    25 C25         29.5950     1.4610    11.9500 C.ar         1 0RF501   0.0000
    26 C26         30.6020     1.4750    10.9550 C.ar         1 0RF501   0.0000
    27 C27         31.3930     2.6080    10.7030 C.ar         1 0RF501   0.0000
    28 C28         31.1720     3.7590    11.4620 C.ar         1 0RF501   0.0000
    29 CL1         30.9000     0.0750    10.0030 Cl           1 0RF501   0.0000
    30 C29         32.0110     6.7560    15.9950 C.3          1 0RF501   0.0000
    31 C30         31.4680     7.7290    17.0900 C.3          1 0RF501   0.0000
    32 C31         32.9040     5.6170    16.5740 C.3          1 0RF501   0.0000
    33 H1          25.2885     8.8351     6.6705 H            1 0RF501   0.0000
    34 H2          22.8167     4.6413     6.5452 H            1 0RF501   0.0000
    35 H3          22.7520     3.2198     8.3010 H            1 0RF501   0.0000
    36 H4          22.3743     4.4038     9.3603 H            1 0RF501   0.0000
    37 H5          24.5837     4.2294    10.0078 H            1 0RF501   0.0000
    38 H6          25.0510     2.2341     8.6838 H            1 0RF501   0.0000
    39 H7          25.1227     3.1351     7.3238 H            1 0RF501   0.0000
    40 H8          26.2853     3.2798     8.4613 H            1 0RF501   0.0000
    41 H9          21.2368     6.0799     6.5097 H            1 0RF501   0.0000
    42 H10         28.0666     7.8435     8.7377 H            1 0RF501   0.0000
    43 H11         29.0869     6.5967     9.0045 H            1 0RF501   0.0000
    44 H12         27.9268     8.3072    11.0039 H            1 0RF501   0.0000
    45 H13         29.5164     8.1511    10.6644 H            1 0RF501   0.0000
    46 H14         26.7331     6.4209    11.9839 H            1 0RF501   0.0000
    47 H15         27.5559     5.1266    12.5447 H            1 0RF501   0.0000
    48 H16         28.0813     4.5167    10.2650 H            1 0RF501   0.0000
    49 H17         26.4665     4.5270    10.5082 H            1 0RF501   0.0000
    50 H18         29.0800     4.9006    13.7786 H            1 0RF501   0.0000
    51 H19         31.9700     5.1810    13.8693 H            1 0RF501   0.0000
    52 H20         31.1153     4.2210    14.8765 H            1 0RF501   0.0000
    53 H21         30.1640     5.9426    15.9052 H            1 0RF501   0.0000
    54 H22         28.6699     2.6328    13.4409 H            1 0RF501   0.0000
    55 H23         29.0481     0.6377    12.1018 H            1 0RF501   0.0000
    56 H24         32.0992     2.5907     9.9952 H            1 0RF501   0.0000
    57 H25         31.7191     4.5813    11.3058 H            1 0RF501   0.0000
    58 H26         32.5702     7.2906    15.3614 H            1 0RF501   0.0000
    59 H27         32.2338     8.1022    17.6137 H            1 0RF501   0.0000
    60 H28         30.9673     8.4763    16.6532 H            1 0RF501   0.0000
    61 H29         30.8554     7.2313    17.7040 H            1 0RF501   0.0000
    62 H30         33.6706     6.0171    17.0762 H            1 0RF501   0.0000
    63 H31         32.3606     5.0491    17.1922 H            1 0RF501   0.0000
    64 H32         33.2536     5.0541    15.8250 H            1 0RF501   0.0000
    65 H33         30.4950     6.9660    14.6764 H            1 0RF501   0.0000
@<TRIPOS>BOND
     1    1    2      ar
     2    1    6      ar
     3    2    3      ar
     4    3    4      ar
     5    4    5      ar
     6    4    7       1
     7    5    6      ar
     8    5    9       1
     9    6   10       1
    10    7    8       1
    11    7   12       1
    12    8    9       1
    13    9   11       1
    14   10   13       1
    15   10   17       1
    16   13   14       1
    17   14   15       1
    18   15   16       1
    19   15   18      am
    20   16   17       1
    21   18   19       1
    22   18   20       2
    23   19   21       1
    24   19   22       1
    25   21   24      ar
    26   21   28      ar
    27   22   23       1
    28   23   30       1
    29   24   25      ar
    30   25   26      ar
    31   26   27      ar
    32   26   29       1
    33   27   28      ar
    34   30   31       1
    35   30   32       1
    36    2   33       1
    37    7   34       1
    38    8   35       1
    39    8   36       1
    40    9   37       1
    41   11   38       1
    42   11   39       1
    43   11   40       1
    44   12   41       1
    45   13   42       1
    46   13   43       1
    47   14   44       1
    48   14   45       1
    49   16   46       1
    50   16   47       1
    51   17   48       1
    52   17   49       1
    53   19   50       1
    54   22   51       1
    55   22   52       1
    56   23   53       1
    57   24   54       1
    58   25   55       1
    59   27   56       1
    60   28   57       1
    61   30   58       1
    62   31   59       1
    63   31   60       1
    64   31   61       1
    65   32   62       1
    66   32   63       1
    67   32   64       1
    68   23   65       1
@<TRIPOS>SUBSTRUCTURE
     1 0RF501      1 GROUP             4 A     0RF     0 **** 0RF A 501
