@<TRIPOS>MOLECULE
4o2r_GDP_2_ligand
   40    42     1     0     0
SMALL
NO_CHARGES


@<TRIPOS>ATOM
     1 PB          -9.1350     3.3530    -0.5690 P.3          1 GDP201   0.0000
     2 O1B         -8.3430     2.1670    -0.0410 O.co2        1 GDP201   0.0000
     3 O2B        -10.0670     2.8470    -1.6590 O.co2        1 GDP201  -1.0000
     4 O3B         -9.9730     3.9750     0.5330 O.co2        1 GDP201  -1.0000
     5 O3A         -8.0910     4.4040    -1.2060 O.3          1 GDP201   0.0000
     6 PA          -7.5890     5.7680    -0.4860 P.3          1 GDP201   0.0000
     7 O1A         -7.1340     5.4990     0.9310 O.co2        1 GDP201   0.0000
     8 O2A         -8.6560     6.8310    -0.5680 O.co2        1 GDP201  -1.0000
     9 O5'         -6.3560     6.1820    -1.4300 O.3          1 GDP201   0.0000
    10 C5'         -5.1100     5.4990    -1.3100 C.3          1 GDP201   0.0000
    11 C4'         -4.0190     6.4290    -1.8170 C.3          1 GDP201   0.0000
    12 O4'         -4.3350     6.8660    -3.1480 O.3          1 GDP201   0.0000
    13 C3'         -3.9260     7.6660    -0.9400 C.3          1 GDP201   0.0000
    14 O3'         -2.5540     8.0020    -0.7280 O.3          1 GDP201   0.0000
    15 C2'         -4.5690     8.7710    -1.7470 C.3          1 GDP201   0.0000
    16 O2'         -3.9370    10.0320    -1.4890 O.3          1 GDP201   0.0000
    17 C1'         -4.3730     8.3050    -3.1840 C.3          1 GDP201   0.0000
    18 N9          -5.4950     8.7590    -4.0400 N.pl3        1 GDP201   0.0000
    19 C8          -6.7890     8.4400    -3.8740 C.2          1 GDP201   0.0000
    20 N7          -7.5530     9.0150    -4.8400 N.2          1 GDP201   0.0000
    21 C5          -6.7390     9.7070    -5.6550 C.2          1 GDP201   0.0000
    22 C6          -6.8970    10.5280    -6.8850 C.2          1 GDP201   0.0000
    23 O6          -8.0370    10.7200    -7.3870 O.2          1 GDP201   0.0000
    24 N1          -5.7820    11.0690    -7.4180 N.pl3        1 GDP201   0.0000
    25 C2          -4.5450    10.8740    -6.8880 C.2          1 GDP201   0.0000
    26 N2          -3.4650    11.4480    -7.4760 N.pl3        1 GDP201   0.0000
    27 N3          -4.3390    10.1270    -5.7710 N.2          1 GDP201   0.0000
    28 C4          -5.3760     9.5270    -5.1280 C.2          1 GDP201   0.0000
    29 H5'1        -5.1262     4.6630    -1.8584 H            1 GDP201   0.0000
    30 H5'2        -4.9406     5.2662    -0.3523 H            1 GDP201   0.0000
    31 H4'         -3.1412     5.9499    -1.8187 H            1 GDP201   0.0000
    32 H3'         -4.4024     7.5293    -0.0715 H            1 GDP201   0.0000
    33 H5          -2.4531     8.4448     0.1629 H            1 GDP201   0.0000
    34 H2'         -5.5447     8.8270    -1.5350 H            1 GDP201   0.0000
    35 H7          -4.3972    10.4855    -0.7257 H            1 GDP201   0.0000
    36 H1'         -3.5085     8.6589    -3.5410 H            1 GDP201   0.0000
    37 H9          -7.1419     7.8592    -3.1404 H            1 GDP201   0.0000
    38 H10         -5.8688    11.6368    -8.2366 H            1 GDP201   0.0000
    39 H11         -2.5528    11.3083    -7.0909 H            1 GDP201   0.0000
    40 H12         -3.5814    12.0107    -8.2944 H            1 GDP201   0.0000
@<TRIPOS>BOND
     1    1    2      ar
     2    1    3      ar
     3    1    4      ar
     4    1    5       1
     5    5    6       1
     6    6    7      ar
     7    6    8      ar
     8    6    9       1
     9    9   10       1
    10   10   11       1
    11   11   12       1
    12   11   13       1
    13   12   17       1
    14   13   14       1
    15   13   15       1
    16   15   16       1
    17   15   17       1
    18   17   18       1
    19   18   19       1
    20   18   28       1
    21   19   20       2
    22   20   21       1
    23   21   22       1
    24   21   28       2
    25   22   23       2
    26   22   24       1
    27   24   25       1
    28   25   26       1
    29   25   27       2
    30   27   28       1
    31   26   40       1
    32   26   39       1
    33   24   38       1
    34   10   29       1
    35   10   30       1
    36   11   31       1
    37   13   32       1
    38   14   33       1
    39   15   34       1
    40   16   35       1
    41   17   36       1
    42   19   37       1
@<TRIPOS>SUBSTRUCTURE
     1 GDP201      1 GROUP             4 B     GDP     0 **** GDP B 201
