@<TRIPOS>MOLECULE
4u7w_NDP_1_ligand
   73    77     1     0     0
SMALL
NO_CHARGES


@<TRIPOS>ATOM
     1 PA          -7.6330   -26.6010    -6.6940 P.3          1 NDP1601   0.0000
     2 O1A         -7.2240   -25.1590    -6.8520 O.co2        1 NDP1601   0.0000
     3 O2A         -9.1010   -26.7940    -6.8730 O.co2        1 NDP1601  -1.0000
     4 O5B         -7.2940   -27.0480    -5.2410 O.3          1 NDP1601   0.0000
     5 C5B         -6.0590   -26.5310    -4.7190 C.3          1 NDP1601   0.0000
     6 C4B         -5.9750   -27.0680    -3.2790 C.3          1 NDP1601   0.0000
     7 O4B         -4.7930   -26.8040    -2.8280 O.3          1 NDP1601   0.0000
     8 C3B         -6.9630   -26.2740    -2.4140 C.3          1 NDP1601   0.0000
     9 O3B         -7.5630   -27.0800    -1.5190 O.3          1 NDP1601   0.0000
    10 C2B         -6.0410   -25.2740    -1.6960 C.3          1 NDP1601   0.0000
    11 O2B         -6.6770   -24.7520    -0.4230 O.3          1 NDP1601   0.0000
    12 C1B         -4.9570   -25.9520    -1.4870 C.3          1 NDP1601   0.0000
    13 N9A         -3.9170   -24.9990    -1.3790 N.pl3        1 NDP1601   0.0000
    14 C8A         -3.3430   -24.1030    -2.2510 C.2          1 NDP1601   0.0000
    15 N7A         -2.4100   -23.3920    -1.5790 N.2          1 NDP1601   0.0000
    16 C5A         -2.4180   -23.8490    -0.2650 C.ar         1 NDP1601   0.0000
    17 C6A         -1.6840   -23.4740     0.8300 C.ar         1 NDP1601   0.0000
    18 N6A         -0.6830   -22.4570     0.8170 N.pl3        1 NDP1601   0.0000
    19 N1A         -1.8730   -24.0610     1.9920 N.ar         1 NDP1601   0.0000
    20 C2A         -2.8120   -25.0560     2.1140 C.ar         1 NDP1601   0.0000
    21 N3A         -3.5410   -25.4270     1.0330 N.ar         1 NDP1601   0.0000
    22 C4A         -3.3390   -24.8290    -0.1450 C.ar         1 NDP1601   0.0000
    23 O3          -6.7750   -27.4040    -7.7650 O.3          1 NDP1601   0.0000
    24 PN          -6.8740   -28.9020    -8.2620 P.3          1 NDP1601   0.0000
    25 O1N         -7.7510   -29.7720    -7.3760 O.co2        1 NDP1601   0.0000
    26 O2N         -7.3250   -28.8890    -9.6980 O.co2        1 NDP1601  -1.0000
    27 O5D         -5.4270   -29.5440    -8.2300 O.3          1 NDP1601   0.0000
    28 C5D         -5.1290   -30.4290    -7.1690 C.3          1 NDP1601   0.0000
    29 C4D         -3.7630   -31.0450    -7.5150 C.3          1 NDP1601   0.0000
    30 O4D         -3.8620   -31.6610    -8.6620 O.3          1 NDP1601   0.0000
    31 C3D         -2.7390   -29.9220    -7.7270 C.3          1 NDP1601   0.0000
    32 O3D         -1.5270   -30.2830    -7.2350 O.3          1 NDP1601   0.0000
    33 C2D         -2.6430   -29.8310    -9.2680 C.3          1 NDP1601   0.0000
    34 O2D         -1.3000   -29.2730    -9.6040 O.3          1 NDP1601   0.0000
    35 C1D         -2.7380   -31.0650    -9.6250 C.3          1 NDP1601   0.0000
    36 N1N         -3.1710   -31.1980   -10.9870 N.ar         1 NDP1601   1.0000
    37 C2N         -4.4370   -30.7650   -11.3460 C.ar         1 NDP1601   0.0000
    38 C3N         -4.9050   -30.7700   -12.7720 C.ar         1 NDP1601   0.0000
    39 C7N         -6.2680   -30.2560   -13.1410 C.2          1 NDP1601   0.0000
    40 O7N         -6.7118   -30.4490   -14.2181 O.2          1 NDP1601   0.0000
    41 N7N         -6.9730   -29.5067   -12.1755 N.am         1 NDP1601   0.0000
    42 C4N         -4.0300   -31.2820   -13.8780 C.ar         1 NDP1601   0.0000
    43 C5N         -2.6790   -31.7720   -13.4260 C.ar         1 NDP1601   0.0000
    44 C6N         -2.2850   -31.7230   -11.9500 C.ar         1 NDP1601   0.0000
    45 P2B         -7.4220   -23.3360    -0.4340 P.3          1 NDP1601   0.0000
    46 O1X         -8.8650   -23.5220    -0.6440 O.co2        1 NDP1601   0.0000
    47 O2X         -7.2020   -22.6420     0.9210 O.co2        1 NDP1601  -1.0000
    48 O3X         -6.9110   -22.5130    -1.5150 O.co2        1 NDP1601  -1.0000
    49 H5B1        -6.0686   -25.5310    -4.7206 H            1 NDP1601   0.0000
    50 H5B2        -5.2848   -26.8578    -5.2611 H            1 NDP1601   0.0000
    51 H4B         -6.1673   -28.0487    -3.2443 H            1 NDP1601   0.0000
    52 H3B         -7.6371   -25.7998    -2.9803 H            1 NDP1601   0.0000
    53 H5          -8.2020   -26.5460    -0.9654 H            1 NDP1601   0.0000
    54 H2B         -5.8416   -24.5077    -2.3067 H            1 NDP1601   0.0000
    55 H1B         -5.0242   -26.5325    -0.6755 H            1 NDP1601   0.0000
    56 H8A         -3.5762   -23.9959    -3.2175 H            1 NDP1601   0.0000
    57 H6A1        -0.1851   -22.2347     1.6553 H            1 NDP1601   0.0000
    58 H6A2        -0.4794   -21.9666    -0.0304 H            1 NDP1601   0.0000
    59 H2A         -2.9571   -25.5045     2.9959 H            1 NDP1601   0.0000
    60 H5D1        -5.8268   -31.1422    -7.1030 H            1 NDP1601   0.0000
    61 H5D2        -5.0781   -29.9312    -6.3032 H            1 NDP1601   0.0000
    62 H4D         -3.4617   -31.6726    -6.7971 H            1 NDP1601   0.0000
    63 H3D         -3.0535   -29.0604    -7.3287 H            1 NDP1601   0.0000
    64 H16         -1.4225   -31.2753    -7.3011 H            1 NDP1601   0.0000
    65 H2D         -3.3810   -29.2765    -9.6527 H            1 NDP1601   0.0000
    66 H18         -1.2040   -28.3658    -9.1945 H            1 NDP1601   0.0000
    67 H1D         -1.8686   -31.5388    -9.4852 H            1 NDP1601   0.0000
    68 H2N         -5.0581   -30.4391   -10.6332 H            1 NDP1601   0.0000
    69 H7N1        -7.8576   -29.1010   -12.4056 H            1 NDP1601   0.0000
    70 H7N2        -6.5881   -29.3814   -11.2611 H            1 NDP1601   0.0000
    71 H4N         -4.3194   -31.2968   -14.8351 H            1 NDP1601   0.0000
    72 H5N         -2.0332   -32.1331   -14.0987 H            1 NDP1601   0.0000
    73 H6N         -1.3903   -32.0666   -11.6646 H            1 NDP1601   0.0000
@<TRIPOS>BOND
     1    1    2      ar
     2    1    3      ar
     3    1    4       1
     4    1   23       1
     5    4    5       1
     6    5    6       1
     7    6    7       1
     8    6    8       1
     9    7   12       1
    10    8    9       1
    11    8   10       1
    12   10   11       1
    13   10   12       1
    14   11   45       1
    15   12   13       1
    16   13   14       1
    17   13   22       1
    18   14   15       2
    19   15   16       1
    20   16   17      ar
    21   16   22      ar
    22   17   18       1
    23   17   19      ar
    24   19   20      ar
    25   20   21      ar
    26   21   22      ar
    27   23   24       1
    28   24   25      ar
    29   24   26      ar
    30   24   27       1
    31   27   28       1
    32   28   29       1
    33   29   30       1
    34   29   31       1
    35   30   35       1
    36   31   32       1
    37   31   33       1
    38   33   34       1
    39   33   35       1
    40   35   36       1
    41   36   37      ar
    42   36   44      ar
    43   37   38      ar
    44   38   39       1
    45   38   42      ar
    46   39   40       2
    47   39   41      am
    48   42   43      ar
    49   43   44      ar
    50   45   46      ar
    51   45   47      ar
    52   45   48      ar
    53   43   72       1
    54    5   49       1
    55    5   50       1
    56    6   51       1
    57    8   52       1
    58    9   53       1
    59   10   54       1
    60   12   55       1
    61   14   56       1
    62   18   57       1
    63   18   58       1
    64   20   59       1
    65   44   73       1
    66   28   60       1
    67   28   61       1
    68   29   62       1
    69   31   63       1
    70   32   64       1
    71   33   65       1
    72   34   66       1
    73   35   67       1
    74   37   68       1
    75   41   69       1
    76   41   70       1
    77   42   71       1
@<TRIPOS>SUBSTRUCTURE
     1 NDP1601     1 GROUP             4 A     NDP     0 **** NDP A1601
