@<TRIPOS>MOLECULE
3wst_SAH_18_ligand
   46    48     1     0     0
SMALL
NO_CHARGES


@<TRIPOS>ATOM
     1 N          138.7200   -56.1590    61.7820 N.4          1 SAH701   1.0000
     2 CA         138.6500   -55.8640    63.2200 C.3          1 SAH701   0.0000
     3 CB         137.2570   -56.1990    63.7590 C.3          1 SAH701   0.0000
     4 CG         136.8440   -57.6500    63.6000 C.3          1 SAH701   0.0000
     5 SD         135.4690   -57.9550    64.6710 S.3          1 SAH701   0.0000
     6 C          139.7560   -56.4910    64.0480 C.2          1 SAH701   0.0000
     7 O          140.3430   -57.5160    63.7050 O.co2        1 SAH701   0.0000
     8 OXT        140.1180   -55.9940    65.1170 O.co2        1 SAH701  -1.0000
     9 C5'        134.1440   -58.0930    63.4920 C.3          1 SAH701   0.0000
    10 C4'        133.6670   -56.6710    63.1870 C.3          1 SAH701   0.0000
    11 O4'        133.1800   -56.5140    61.8450 O.3          1 SAH701   0.0000
    12 C3'        132.5510   -56.2050    64.1280 C.3          1 SAH701   0.0000
    13 O3'        132.9140   -54.9060    64.6180 O.3          1 SAH701   0.0000
    14 C2'        131.3160   -56.1260    63.2440 C.3          1 SAH701   0.0000
    15 O2'        130.4790   -55.0530    63.6420 O.3          1 SAH701   0.0000
    16 C1'        131.9140   -55.8480    61.8770 C.3          1 SAH701   0.0000
    17 N9         131.1740   -56.4250    60.7670 N.pl3        1 SAH701   0.0000
    18 C8         130.6840   -57.6720    60.6990 C.2          1 SAH701   0.0000
    19 N7         130.0680   -57.8930    59.5070 N.2          1 SAH701   0.0000
    20 C5         130.1960   -56.7680    58.7920 C.ar         1 SAH701   0.0000
    21 C6         129.7940   -56.3280    57.4420 C.ar         1 SAH701   0.0000
    22 N6         129.1200   -57.1660    56.6110 N.pl3        1 SAH701   0.0000
    23 N1         130.1170   -55.0630    57.0860 N.ar         1 SAH701   0.0000
    24 C2         130.7950   -54.2210    57.8980 C.ar         1 SAH701   0.0000
    25 N3         131.2120   -54.5700    59.1250 N.ar         1 SAH701   0.0000
    26 C4         130.9420   -55.8060    59.6200 C.ar         1 SAH701   0.0000
    27 H1         139.3699   -55.5370    61.3454 H            1 SAH701   0.0000
    28 H2         139.0219   -57.1031    61.6497 H            1 SAH701   0.0000
    29 HA         138.7568   -54.8738    63.3103 H            1 SAH701   0.0000
    30 HB1        136.5914   -55.6314    63.2744 H            1 SAH701   0.0000
    31 HB2        137.2388   -55.9756    64.7336 H            1 SAH701   0.0000
    32 HG1        137.6059   -58.2479    63.8489 H            1 SAH701   0.0000
    33 HG2        136.5794   -57.8245    62.6516 H            1 SAH701   0.0000
    34 H5'1       133.3949   -58.6311    63.8785 H            1 SAH701   0.0000
    35 H5'2       134.4727   -58.5318    62.6557 H            1 SAH701   0.0000
    36 H4'        134.4453   -56.0543    63.3051 H            1 SAH701   0.0000
    37 H3'        132.4177   -56.8512    64.8795 H            1 SAH701   0.0000
    38 H12        133.0089   -54.2741    63.8488 H            1 SAH701   0.0000
    39 H2'        130.8158   -56.9919    63.2477 H            1 SAH701   0.0000
    40 H14        130.7407   -54.2247    63.1466 H            1 SAH701   0.0000
    41 H1'        132.0339   -54.8644    61.7423 H            1 SAH701   0.0000
    42 H16        130.7616   -58.3505    61.4295 H            1 SAH701   0.0000
    43 H17        128.8527   -56.8569    55.6983 H            1 SAH701   0.0000
    44 H18        128.8914   -58.0917    56.9122 H            1 SAH701   0.0000
    45 H19        130.9945   -53.2977    57.5699 H            1 SAH701   0.0000
    46 H20        137.8158   -56.0376    61.3724 H            1 SAH701   0.0000
@<TRIPOS>BOND
     1    1    2       1
     2    2    3       1
     3    2    6       1
     4    3    4       1
     5    4    5       1
     6    5    9       1
     7    6    7      ar
     8    6    8      ar
     9    9   10       1
    10   10   11       1
    11   10   12       1
    12   11   16       1
    13   12   13       1
    14   12   14       1
    15   14   15       1
    16   14   16       1
    17   16   17       1
    18   17   18       1
    19   17   26       1
    20   18   19       2
    21   19   20       1
    22   20   21      ar
    23   20   26      ar
    24   21   22       1
    25   21   23      ar
    26   23   24      ar
    27   24   25      ar
    28   25   26      ar
    29    1   27       1
    30    1   28       1
    31    2   29       1
    32    3   30       1
    33    3   31       1
    34    4   32       1
    35    4   33       1
    36    1   46       1
    37    9   34       1
    38    9   35       1
    39   10   36       1
    40   12   37       1
    41   13   38       1
    42   14   39       1
    43   15   40       1
    44   16   41       1
    45   18   42       1
    46   22   43       1
    47   22   44       1
    48   24   45       1
@<TRIPOS>SUBSTRUCTURE
     1 SAH701      1 GROUP             4 R     SAH     0 **** SAH R 701
