@<TRIPOS>MOLECULE
3dwb_5HD_1_ligand
   38    37     1     0     0
SMALL
NO_CHARGES


@<TRIPOS>ATOM
     1 C1          72.2100    18.0990    52.7590 C.3          1 5HD816   0.0000
     2 C2          73.6100    18.2290    53.3550 C.3          1 5HD816   0.0000
     3 C3          74.1610    16.8900    53.8210 C.3          1 5HD816   0.0000
     4 O14         65.3220    18.9660    49.5250 O.3          1 5HD816   0.0000
     5 C13         66.3000    17.9290    49.4810 C.3          1 5HD816   0.0000
     6 C12         67.4310    18.3110    50.4100 C.3          1 5HD816   0.0000
     7 C11         68.3820    17.1450    50.6770 C.3          1 5HD816   0.0000
     8 C10         69.7160    17.6600    51.2210 C.3          1 5HD816   0.0000
     9 C6          70.9670    16.8590    50.8320 C.3          1 5HD816   0.0000
    10 C7          70.9700    16.5430    49.3250 C.3          1 5HD816   0.0000
    11 C8          72.3450    16.2830    48.7340 C.3          1 5HD816   0.0000
    12 O9          72.2310    16.2500    47.3130 O.3          1 5HD816   0.0000
    13 C5          72.2280    17.6500    51.2880 C.3          1 5HD816   0.0000
    14 O4          75.5960    16.8950    53.8220 O.3          1 5HD816   0.0000
    15 H1          71.7545    18.9874    52.8164 H            1 5HD816   0.0000
    16 H2          71.6969    17.4263    53.2922 H            1 5HD816   0.0000
    17 H3          73.5709    18.8512    54.1369 H            1 5HD816   0.0000
    18 H4          74.2226    18.6053    52.6599 H            1 5HD816   0.0000
    19 H5          73.8372    16.1714    53.2056 H            1 5HD816   0.0000
    20 H6          73.8342    16.7070    54.7482 H            1 5HD816   0.0000
    21 H7          64.5629    18.7343    48.9167 H            1 5HD816   0.0000
    22 H8          66.6464    17.8290    48.5483 H            1 5HD816   0.0000
    23 H9          65.8927    17.0659    49.7796 H            1 5HD816   0.0000
    24 H10         67.0434    18.6155    51.2801 H            1 5HD816   0.0000
    25 H11         67.9486    19.0596    49.9955 H            1 5HD816   0.0000
    26 H12         68.5433    16.6491    49.8237 H            1 5HD816   0.0000
    27 H13         67.9683    16.5290    51.3474 H            1 5HD816   0.0000
    28 H14         69.6560    17.6648    52.2192 H            1 5HD816   0.0000
    29 H15         69.8387    18.5956    50.8900 H            1 5HD816   0.0000
    30 H16         70.9476    15.9923    51.3305 H            1 5HD816   0.0000
    31 H17         70.5656    17.3202    48.8429 H            1 5HD816   0.0000
    32 H18         70.4080    15.7294    49.1762 H            1 5HD816   0.0000
    33 H19         72.6933    15.4058    49.0644 H            1 5HD816   0.0000
    34 H20         72.9717    17.0137    49.0048 H            1 5HD816   0.0000
    35 H21         71.2784    16.4052    47.0513 H            1 5HD816   0.0000
    36 H22         73.0281    17.0661    51.1506 H            1 5HD816   0.0000
    37 H23         72.3080    18.4654    50.7147 H            1 5HD816   0.0000
    38 H24         75.9310    16.2795    54.5354 H            1 5HD816   0.0000
@<TRIPOS>BOND
     1    1    2       1
     2    1   13       1
     3    2    3       1
     4    3   14       1
     5    4    5       1
     6    5    6       1
     7    6    7       1
     8    7    8       1
     9    8    9       1
    10    9   10       1
    11    9   13       1
    12   10   11       1
    13   11   12       1
    14    1   15       1
    15    1   16       1
    16    2   17       1
    17    2   18       1
    18    3   19       1
    19    3   20       1
    20    4   21       1
    21    5   22       1
    22    5   23       1
    23    6   24       1
    24    6   25       1
    25    7   26       1
    26    7   27       1
    27    8   28       1
    28    8   29       1
    29    9   30       1
    30   10   31       1
    31   10   32       1
    32   11   33       1
    33   11   34       1
    34   12   35       1
    35   13   36       1
    36   13   37       1
    37   14   38       1
@<TRIPOS>SUBSTRUCTURE
     1 5HD816      1 GROUP             4 A     5HD     0 **** 5HD A 816
