@<TRIPOS>MOLECULE
1svw_GTP_2_ligand
   45    47     1     0     0
SMALL
NO_CHARGES


@<TRIPOS>ATOM
     1 PG           5.7120    59.2290    83.2870 P.3          1 GTP402   0.0000
     2 O1G          6.0100    57.7500    83.1030 O.co2        1 GTP402   0.0000
     3 O2G          6.4250    60.1620    82.3170 O.co2        1 GTP402  -1.0000
     4 O3G          5.9420    59.5660    84.6780 O.co2        1 GTP402  -1.0000
     5 O3B          4.0730    59.3350    83.0170 O.3          1 GTP402   0.0000
     6 PB           2.7640    59.3230    84.0550 P.3          1 GTP402   0.0000
     7 O1B          2.1740    57.9170    84.0890 O.co2        1 GTP402   0.0000
     8 O2B          3.2290    59.8690    85.3430 O.co2        1 GTP402  -1.0000
     9 O3A          1.8010    60.3040    83.3460 O.3          1 GTP402   0.0000
    10 PA           1.2980    61.7350    83.7930 P.3          1 GTP402   0.0000
    11 O1A          0.4770    61.6760    84.9980 O.co2        1 GTP402   0.0000
    12 O2A          2.5900    62.5570    83.8020 O.co2        1 GTP402  -1.0000
    13 O5'          0.2690    62.1630    82.5820 O.3          1 GTP402   0.0000
    14 C5'          0.9090    62.3030    81.2630 C.3          1 GTP402   0.0000
    15 C4'         -0.4270    62.7470    80.4700 C.3          1 GTP402   0.0000
    16 O4'         -1.5660    61.8620    80.5650 O.3          1 GTP402   0.0000
    17 C3'         -0.9910    64.1050    80.7300 C.3          1 GTP402   0.0000
    18 O3'         -1.1470    64.8910    79.5610 O.3          1 GTP402   0.0000
    19 C2'         -2.3120    63.9450    81.5460 C.3          1 GTP402   0.0000
    20 O2'         -3.1790    64.9330    81.4310 O.3          1 GTP402   0.0000
    21 C1'         -2.7810    62.5740    80.7790 C.3          1 GTP402   0.0000
    22 N9          -3.7330    61.8500    81.6720 N.pl3        1 GTP402   0.0000
    23 C8          -3.3900    61.1200    82.8120 C.2          1 GTP402   0.0000
    24 N7          -4.6490    60.7310    83.1690 N.2          1 GTP402   1.0000
    25 C5          -5.6780    61.1740    82.3350 C.2          1 GTP402   0.0000
    26 C6          -6.9260    60.9740    82.4170 C.2          1 GTP402   0.0000
    27 O6          -7.7630    60.3760    83.1560 O.2          1 GTP402   0.0000
    28 N1          -7.6790    61.6640    81.2650 N.pl3        1 GTP402   0.0000
    29 C2          -6.9410    62.3230    80.4180 C.2          1 GTP402   0.0000
    30 N2          -7.7000    62.9850    79.2990 N.pl3        1 GTP402   0.0000
    31 N3          -5.6250    62.5320    80.3360 N.2          1 GTP402   0.0000
    32 C4          -5.0600    61.8780    81.4000 C.2          1 GTP402   0.0000
    33 H5'1         1.2900    61.4422    80.9256 H            1 GTP402   0.0000
    34 H5'2         1.6175    63.0086    81.2508 H            1 GTP402   0.0000
    35 H4'         -0.1725    62.7473    79.5029 H            1 GTP402   0.0000
    36 H3'         -0.3400    64.5837    81.3191 H            1 GTP402   0.0000
    37 H5          -0.3118    65.4164    79.3987 H            1 GTP402   0.0000
    38 H2'         -2.1124    63.7606    82.5084 H            1 GTP402   0.0000
    39 H7          -3.9853    64.7355    81.9885 H            1 GTP402   0.0000
    40 H1'         -3.2171    62.7928    79.9061 H            1 GTP402   0.0000
    41 H9          -2.5017    60.9391    83.2341 H            1 GTP402   0.0000
    42 H10         -7.2091    63.5114    78.6048 H            1 GTP402   0.0000
    43 H11         -8.6950    62.8983    79.2499 H            1 GTP402   0.0000
    44 H12         -8.6732    61.6096    81.1728 H            1 GTP402   0.0000
    45 H13         -4.8231    60.1656    83.9752 H            1 GTP402   0.0000
@<TRIPOS>BOND
     1    1    2      ar
     2    1    3      ar
     3    1    4      ar
     4    1    5       1
     5    5    6       1
     6    6    7      ar
     7    6    8      ar
     8    6    9       1
     9    9   10       1
    10   10   11      ar
    11   10   12      ar
    12   10   13       1
    13   13   14       1
    14   14   15       1
    15   15   16       1
    16   15   17       1
    17   16   21       1
    18   17   18       1
    19   17   19       1
    20   19   20       1
    21   19   21       1
    22   21   22       1
    23   22   23       1
    24   22   32       1
    25   23   24       2
    26   24   25       1
    27   25   26       1
    28   25   32       2
    29   26   27       2
    30   26   28       1
    31   28   29       1
    32   29   30       1
    33   29   31       2
    34   31   32       1
    35   28   44       1
    36   30   43       1
    37   30   42       1
    38   23   41       1
    39   14   33       1
    40   14   34       1
    41   15   35       1
    42   17   36       1
    43   18   37       1
    44   19   38       1
    45   20   39       1
    46   21   40       1
    47   24   45       1
@<TRIPOS>SUBSTRUCTURE
     1 GTP402      1 GROUP             4 B     GTP     0 **** GTP B 402
