@<TRIPOS>MOLECULE
4p9d_TMP_12_ligand
   34    35     1     0     0
SMALL
NO_CHARGES


@<TRIPOS>ATOM
     1 P          -23.1070     1.6310    40.3330 P.3          1 TMP204   0.0000
     2 O1P        -22.6850     0.2450    40.5630 O.co2        1 TMP204   0.0000
     3 O2P        -22.0140     2.6260    40.4290 O.co2        1 TMP204  -1.0000
     4 O3P        -24.3650     2.0400    40.9690 O.co2        1 TMP204  -1.0000
     5 O5'        -23.4450     1.6800    38.7810 O.3          1 TMP204   0.0000
     6 C5'        -23.7260     0.4810    38.0490 C.3          1 TMP204   0.0000
     7 C4'        -22.6320     0.3020    37.0010 C.3          1 TMP204   0.0000
     8 O4'        -22.1400     1.5930    36.6760 O.3          1 TMP204   0.0000
     9 C3'        -21.4170    -0.3790    37.6180 C.3          1 TMP204   0.0000
    10 O3'        -21.3620    -1.7340    37.1520 O.3          1 TMP204   0.0000
    11 C2'        -20.2560     0.4350    37.0620 C.3          1 TMP204   0.0000
    12 C1'        -20.9450     1.2430    35.9900 C.3          1 TMP204   0.0000
    13 N1         -20.2500     2.5150    35.7380 N.pl3        1 TMP204   0.0000
    14 C2         -19.3050     2.6310    34.7930 C.2          1 TMP204   0.0000
    15 O2         -18.9980     1.6630    34.1010 O.2          1 TMP204   0.0000
    16 N3         -18.6660     3.8610    34.5860 N.pl3        1 TMP204   0.0000
    17 C4         -19.0100     4.9710    35.3680 C.2          1 TMP204   0.0000
    18 O4         -18.4470     6.0480    35.1840 O.2          1 TMP204   0.0000
    19 C5         -19.9860     4.8380    36.3440 C.2          1 TMP204   0.0000
    20 C5M        -20.3470     5.9210    37.1350 C.3          1 TMP204   0.0000
    21 C6         -20.6030     3.6110    36.5300 C.2          1 TMP204   0.0000
    22 H5'1       -24.6165     0.5579    37.6005 H            1 TMP204   0.0000
    23 H5'2       -23.7323    -0.3025    38.6704 H            1 TMP204   0.0000
    24 H4'        -22.9640    -0.1857    36.1936 H            1 TMP204   0.0000
    25 H3'        -21.4449    -0.3383    38.6168 H            1 TMP204   0.0000
    26 H5         -22.1954    -2.2145    37.4251 H            1 TMP204   0.0000
    27 H2'1       -19.5471    -0.1554    36.6761 H            1 TMP204   0.0000
    28 H2'2       -19.8540     1.0244    37.7627 H            1 TMP204   0.0000
    29 H1'        -21.1140     0.7191    35.1551 H            1 TMP204   0.0000
    30 H9         -17.9637     3.9463    33.8792 H            1 TMP204   0.0000
    31 H5M1       -21.0597     5.6411    37.7782 H            1 TMP204   0.0000
    32 H5M2       -19.5482     6.2441    37.6424 H            1 TMP204   0.0000
    33 H5M3       -20.6931     6.6576    36.5539 H            1 TMP204   0.0000
    34 H13        -21.3049     3.5093    37.2350 H            1 TMP204   0.0000
@<TRIPOS>BOND
     1    1    2      ar
     2    1    3      ar
     3    1    4      ar
     4    1    5       1
     5    5    6       1
     6    6    7       1
     7    7    8       1
     8    7    9       1
     9    8   12       1
    10    9   10       1
    11    9   11       1
    12   11   12       1
    13   12   13       1
    14   13   14       1
    15   13   21       1
    16   14   15       2
    17   14   16       1
    18   16   17       1
    19   17   18       2
    20   17   19       1
    21   19   20       1
    22   19   21       2
    23   21   34       1
    24   20   33       1
    25    6   22       1
    26    6   23       1
    27    7   24       1
    28    9   25       1
    29   10   26       1
    30   11   27       1
    31   11   28       1
    32   12   29       1
    33   16   30       1
    34   20   31       1
    35   20   32       1
@<TRIPOS>SUBSTRUCTURE
     1 TMP204      1 GROUP             4 F     TMP     0 **** TMP F 204
