@<TRIPOS>MOLECULE
1svh_I08_1_ligand
   65    68     1     0     0
SMALL
NO_CHARGES


@<TRIPOS>ATOM
     1 F96         36.2690    16.2010     7.8140 F            1 I08351   0.0000
     2 C76         35.2130    15.3860     7.9370 C.ar         1 I08351   0.0000
     3 C75         35.3840    14.2780     8.6890 C.ar         1 I08351   0.0000
     4 O95         36.6400    14.0420     9.2690 O.3          1 I08351   0.0000
     5 C98         36.8280    12.7440     9.8580 C.3          1 I08351   0.0000
     6 C74         34.2510    13.4390     8.8510 C.ar         1 I08351   0.0000
     7 C73         33.0460    13.7300     8.2610 C.ar         1 I08351   0.0000
     8 C72         32.8590    14.9150     7.4870 C.ar         1 I08351   0.0000
     9 O92         31.7240    15.1980     6.9160 O.3          1 I08351   0.0000
    10 C71         33.9910    15.7570     7.3450 C.ar         1 I08351   0.0000
    11 C61         33.9010    16.9490     6.5340 C.2          1 I08351   0.0000
    12 O62         34.5150    16.9800     5.4770 O.2          1 I08351   0.0000
    13 C54         33.1070    18.1050     6.8670 C.ar         1 I08351   0.0000
    14 C55         32.6400    18.2520     8.2050 C.ar         1 I08351   0.0000
    15 C56         31.8910    19.3780     8.5770 C.ar         1 I08351   0.0000
    16 C53         32.8100    19.0590     5.8800 C.ar         1 I08351   0.0000
    17 C52         32.0510    20.1800     6.2420 C.ar         1 I08351   0.0000
    18 C51         31.5830    20.3500     7.5990 C.ar         1 I08351   0.0000
    19 C42         30.8150    21.5280     7.9710 C.2          1 I08351   0.0000
    20 C41         30.1810    21.6340     9.1630 C.2          1 I08351   0.0000
    21 C37         29.4440    22.8840     9.5330 C.3          1 I08351   0.0000
    22 C36         30.5220    23.9530     9.9280 C.3          1 I08351   0.0000
    23 C35         31.5550    23.4730    10.9920 C.3          1 I08351   0.0000
    24 C34         30.9480    23.6260    12.3880 C.3          1 I08351   0.0000
    25 N33         29.7770    22.7130    12.5480 N.4          1 I08351   1.0000
    26 C32         28.5170    23.2130    11.9460 C.3          1 I08351   0.0000
    27 C31         28.3080    22.6650    10.5580 C.3          1 I08351   0.0000
    28 N23         27.0710    23.2800    10.0710 N.am         1 I08351   0.0000
    29 C21         25.9750    22.5110     9.6990 C.2          1 I08351   0.0000
    30 O22         26.1490    21.3000     9.6080 O.2          1 I08351   0.0000
    31 C14         24.6550    23.0800     9.4930 C.ar         1 I08351   0.0000
    32 C13         23.5840    22.1760     9.3710 C.ar         1 I08351   0.0000
    33 C12         22.2970    22.6250     9.2180 C.ar         1 I08351   0.0000
    34 N11         22.0460    23.9910     9.1270 N.ar         1 I08351   0.0000
    35 C16         23.0790    24.9140     9.2220 C.ar         1 I08351   0.0000
    36 C15         24.3860    24.4690     9.4110 C.ar         1 I08351   0.0000
    37 H1          37.7502    12.6816    10.2398 H            1 I08351   0.0000
    38 H2          36.1560    12.6077    10.5859 H            1 I08351   0.0000
    39 H3          36.7086    12.0399     9.1580 H            1 I08351   0.0000
    40 H4          34.3325    12.6137     9.4099 H            1 I08351   0.0000
    41 H5          32.2808    13.0966     8.3762 H            1 I08351   0.0000
    42 H6          30.9470    14.5759     7.0124 H            1 I08351   0.0000
    43 H7          32.8477    17.5475     8.8836 H            1 I08351   0.0000
    44 H8          31.5796    19.4912     9.5205 H            1 I08351   0.0000
    45 H9          33.1326    18.9411     4.9408 H            1 I08351   0.0000
    46 H10         31.8305    20.8706     5.5532 H            1 I08351   0.0000
    47 H11         30.7529    22.2871     7.3230 H            1 I08351   0.0000
    48 H12         30.2053    20.8674     9.8046 H            1 I08351   0.0000
    49 H13         29.0099    23.2155     8.6954 H            1 I08351   0.0000
    50 H14         30.0474    24.7538    10.2935 H            1 I08351   0.0000
    51 H15         31.0227    24.2107     9.1016 H            1 I08351   0.0000
    52 H16         32.3851    24.0267    10.9258 H            1 I08351   0.0000
    53 H17         31.7811    22.5126    10.8291 H            1 I08351   0.0000
    54 H18         30.6487    24.5716    12.5156 H            1 I08351   0.0000
    55 H19         31.6389    23.3995    13.0746 H            1 I08351   0.0000
    56 H20         29.6216    22.5737    13.5260 H            1 I08351   0.0000
    57 H21         28.5541    24.2112    11.8983 H            1 I08351   0.0000
    58 H22         27.7492    22.9352    12.5233 H            1 I08351   0.0000
    59 H23         28.1511    21.6805    10.6369 H            1 I08351   0.0000
    60 H24         27.0139    24.2762    10.0047 H            1 I08351   0.0000
    61 H25         23.7635    21.1926     9.3962 H            1 I08351   0.0000
    62 H26         21.5407    21.9724     9.1719 H            1 I08351   0.0000
    63 H27         22.8861    25.8929     9.1551 H            1 I08351   0.0000
    64 H28         25.1332    25.1290     9.4887 H            1 I08351   0.0000
    65 H29         30.0024    21.8386    12.1184 H            1 I08351   0.0000
@<TRIPOS>BOND
     1    1    2       1
     2    2    3      ar
     3    2   10      ar
     4    3    4       1
     5    3    6      ar
     6    4    5       1
     7    6    7      ar
     8    7    8      ar
     9    8    9       1
    10    8   10      ar
    11   10   11       1
    12   11   12       2
    13   11   13       1
    14   13   14      ar
    15   13   16      ar
    16   14   15      ar
    17   15   18      ar
    18   16   17      ar
    19   17   18      ar
    20   18   19       1
    21   19   20       2
    22   20   21       1
    23   21   22       1
    24   21   27       1
    25   22   23       1
    26   23   24       1
    27   24   25       1
    28   25   26       1
    29   26   27       1
    30   27   28       1
    31   28   29      am
    32   29   30       2
    33   29   31       1
    34   31   32      ar
    35   31   36      ar
    36   32   33      ar
    37   33   34      ar
    38   34   35      ar
    39   35   36      ar
    40    5   37       1
    41    5   38       1
    42    5   39       1
    43    6   40       1
    44    7   41       1
    45    9   42       1
    46   14   43       1
    47   15   44       1
    48   16   45       1
    49   17   46       1
    50   19   47       1
    51   20   48       1
    52   21   49       1
    53   22   50       1
    54   22   51       1
    55   23   52       1
    56   23   53       1
    57   24   54       1
    58   24   55       1
    59   25   56       1
    60   26   57       1
    61   26   58       1
    62   27   59       1
    63   28   60       1
    64   32   61       1
    65   33   62       1
    66   35   63       1
    67   36   64       1
    68   25   65       1
@<TRIPOS>SUBSTRUCTURE
     1 I08351      1 GROUP             4 A     I08     0 **** I08 A 351
