@<TRIPOS>MOLECULE
3sgl_SAM_2_ligand
   50    52     1     0     0
SMALL
NO_CHARGES


@<TRIPOS>ATOM
     1 N           29.3080   -10.9060    34.7560 N.4          1 SAM692   1.0000
     2 CA          30.2980   -11.1980    33.6920 C.3          1 SAM692   0.0000
     3 C           29.9380   -12.4550    32.9160 C.2          1 SAM692   0.0000
     4 O           30.7590   -13.0470    32.1970 O.co2        1 SAM692   0.0000
     5 OXT         28.7730   -12.8440    32.9700 O.co2        1 SAM692  -1.0000
     6 CB          31.7010   -11.2460    34.2650 C.3          1 SAM692   0.0000
     7 CG          32.5310   -10.1910    33.5490 C.3          1 SAM692   0.0000
     8 SD          33.9680    -9.6320    34.4820 S.3          1 SAM692   1.0000
     9 CE          33.7000   -10.4390    36.0960 C.3          1 SAM692   0.0000
    10 C5'         33.6850    -7.8530    34.7940 C.3          1 SAM692   0.0000
    11 C4'         33.4780    -7.0150    33.5310 C.3          1 SAM692   0.0000
    12 O4'         33.2360    -5.6660    33.8570 O.3          1 SAM692   0.0000
    13 C3'         34.6570    -6.9850    32.5620 C.3          1 SAM692   0.0000
    14 O3'         34.2680    -7.5600    31.3440 O.3          1 SAM692   0.0000
    15 C2'         34.9410    -5.5150    32.3510 C.3          1 SAM692   0.0000
    16 O2'         35.2240    -5.2330    31.0160 O.3          1 SAM692   0.0000
    17 C1'         33.6390    -4.8810    32.7580 C.3          1 SAM692   0.0000
    18 N9          33.8190    -3.5040    33.2120 N.pl3        1 SAM692   0.0000
    19 C8          34.6850    -3.0680    34.1800 C.2          1 SAM692   0.0000
    20 N7          34.5110    -1.7390    34.3310 N.2          1 SAM692   0.0000
    21 C5          33.5590    -1.3160    33.4770 C.ar         1 SAM692   0.0000
    22 C6          32.9930    -0.0700    33.2370 C.ar         1 SAM692   0.0000
    23 N6          33.4000     1.0180    33.8870 N.pl3        1 SAM692   0.0000
    24 N1          31.9830     0.0270    32.3030 N.ar         1 SAM692   0.0000
    25 C2          31.5520    -1.0870    31.6240 C.ar         1 SAM692   0.0000
    26 N3          32.1250    -2.3020    31.8720 N.ar         1 SAM692   0.0000
    27 C4          33.1010    -2.4230    32.7860 C.ar         1 SAM692   0.0000
    28 H1          29.7647   -10.9069    35.6456 H            1 SAM692   0.0000
    29 H2          28.8980   -10.0086    34.5927 H            1 SAM692   0.0000
    30 HA          30.2697   -10.4351    33.0461 H            1 SAM692   0.0000
    31 HB1         32.0989   -12.1512    34.1156 H            1 SAM692   0.0000
    32 HB2         31.6751   -11.0510    35.2455 H            1 SAM692   0.0000
    33 HG1         31.9463    -9.4002    33.3682 H            1 SAM692   0.0000
    34 HG2         32.8488   -10.5756    32.6824 H            1 SAM692   0.0000
    35 HE1         34.4477   -10.2010    36.7159 H            1 SAM692   0.0000
    36 HE2         32.8328   -10.1274    36.4846 H            1 SAM692   0.0000
    37 HE3         33.6725   -11.4309    35.9722 H            1 SAM692   0.0000
    38 H5'1        34.4787    -7.4911    35.2829 H            1 SAM692   0.0000
    39 H5'2        32.8705    -7.7616    35.3669 H            1 SAM692   0.0000
    40 H4'         32.6794    -7.3698    33.0448 H            1 SAM692   0.0000
    41 H3'         35.4519    -7.4550    32.9457 H            1 SAM692   0.0000
    42 H15         33.5044    -7.0414    30.9594 H            1 SAM692   0.0000
    43 H2'         35.6856    -5.2087    32.9440 H            1 SAM692   0.0000
    44 H17         34.3757    -5.0118    30.5350 H            1 SAM692   0.0000
    45 H1'         32.9690    -4.9299    32.0172 H            1 SAM692   0.0000
    46 H19         35.3334    -3.6363    34.6866 H            1 SAM692   0.0000
    47 H20         32.9757     1.9030    33.6953 H            1 SAM692   0.0000
    48 H21         34.1301     0.9504    34.5670 H            1 SAM692   0.0000
    49 H22         30.8190    -1.0084    30.9484 H            1 SAM692   0.0000
    50 H23         28.5934   -11.6055    34.7475 H            1 SAM692   0.0000
@<TRIPOS>BOND
     1    1    2       1
     2    2    3       1
     3    2    6       1
     4    3    4      ar
     5    3    5      ar
     6    6    7       1
     7    7    8       1
     8    8    9       1
     9    8   10       1
    10   10   11       1
    11   11   12       1
    12   11   13       1
    13   12   17       1
    14   13   14       1
    15   13   15       1
    16   15   16       1
    17   15   17       1
    18   17   18       1
    19   18   19       1
    20   18   27       1
    21   19   20       2
    22   20   21       1
    23   21   22      ar
    24   21   27      ar
    25   22   23       1
    26   22   24      ar
    27   24   25      ar
    28   25   26      ar
    29   26   27      ar
    30    1   28       1
    31    1   29       1
    32    2   30       1
    33    1   50       1
    34    6   31       1
    35    6   32       1
    36    7   33       1
    37    7   34       1
    38    9   35       1
    39    9   36       1
    40    9   37       1
    41   10   38       1
    42   10   39       1
    43   11   40       1
    44   13   41       1
    45   14   42       1
    46   15   43       1
    47   16   44       1
    48   17   45       1
    49   19   46       1
    50   23   47       1
    51   23   48       1
    52   25   49       1
@<TRIPOS>SUBSTRUCTURE
     1 SAM692      1 GROUP             4 A     SAM     0 **** SAM A 692
