@<TRIPOS>MOLECULE
1rrg_GDP_2_ligand
   40    42     1     0     0
SMALL
NO_CHARGES


@<TRIPOS>ATOM
     1 PB         -15.4110    -6.7010    20.2300 P.3          1 GDP183   0.0000
     2 O1B        -16.7950    -6.7810    19.7770 O.co2        1 GDP183   0.0000
     3 O2B        -14.6500    -7.8630    19.6770 O.co2        1 GDP183  -1.0000
     4 O3B        -14.6620    -5.4080    19.8580 O.co2        1 GDP183  -1.0000
     5 O3A        -15.2720    -6.9190    21.8280 O.3          1 GDP183   0.0000
     6 PA         -14.5180    -7.4890    23.0250 P.3          1 GDP183   0.0000
     7 O1A        -14.6780    -8.9670    23.2440 O.co2        1 GDP183   0.0000
     8 O2A        -13.0330    -7.0840    23.0530 O.co2        1 GDP183  -1.0000
     9 O5'        -15.0950    -6.7440    24.2210 O.3          1 GDP183   0.0000
    10 C5'        -14.8340    -5.3760    24.4990 C.3          1 GDP183   0.0000
    11 C4'        -14.4620    -5.1840    26.0020 C.3          1 GDP183   0.0000
    12 O4'        -15.7350    -5.4710    26.6130 O.3          1 GDP183   0.0000
    13 C3'        -13.5000    -6.2030    26.7100 C.3          1 GDP183   0.0000
    14 O3'        -12.8350    -5.5150    27.8310 O.3          1 GDP183   0.0000
    15 C2'        -14.4260    -7.3080    27.2470 C.3          1 GDP183   0.0000
    16 O2'        -13.7240    -7.9790    28.3400 O.3          1 GDP183   0.0000
    17 C1'        -15.6210    -6.4420    27.6430 C.3          1 GDP183   0.0000
    18 N9         -16.8350    -7.2460    27.6160 N.pl3        1 GDP183   0.0000
    19 C8         -17.2940    -8.2330    26.8330 C.2          1 GDP183   0.0000
    20 N7         -18.4220    -8.8500    27.2630 N.2          1 GDP183   0.0000
    21 C5         -18.6930    -8.1550    28.4470 C.2          1 GDP183   0.0000
    22 C6         -19.6910    -8.3010    29.4980 C.2          1 GDP183   0.0000
    23 O6         -20.6410    -9.0900    29.5530 O.2          1 GDP183   0.0000
    24 N1         -19.4820    -7.3890    30.5440 N.pl3        1 GDP183   0.0000
    25 C2         -18.4890    -6.4530    30.6120 C.2          1 GDP183   0.0000
    26 N2         -18.3310    -5.5870    31.6650 N.pl3        1 GDP183   0.0000
    27 N3         -17.5810    -6.3180    29.6540 N.2          1 GDP183   0.0000
    28 C4         -17.6940    -7.1590    28.6170 C.2          1 GDP183   0.0000
    29 H5'1       -15.6498    -4.8366    24.2906 H            1 GDP183   0.0000
    30 H5'2       -14.0736    -5.0639    23.9295 H            1 GDP183   0.0000
    31 H4'        -14.1819    -4.2414    26.1840 H            1 GDP183   0.0000
    32 H3'        -12.8307    -6.5743    26.0664 H            1 GDP183   0.0000
    33 H5         -13.4390    -4.8041    28.1912 H            1 GDP183   0.0000
    34 H2'        -14.6724    -7.9548    26.5253 H            1 GDP183   0.0000
    35 H7         -13.1108    -7.3301    28.7904 H            1 GDP183   0.0000
    36 H1'        -15.4840    -6.0145    28.5366 H            1 GDP183   0.0000
    37 H9         -16.8335    -8.4972    25.9856 H            1 GDP183   0.0000
    38 H10        -20.1205    -7.4279    31.3126 H            1 GDP183   0.0000
    39 H11        -17.5837    -4.9225    31.6581 H            1 GDP183   0.0000
    40 H12        -18.9632    -5.6205    32.4391 H            1 GDP183   0.0000
@<TRIPOS>BOND
     1    1    2      ar
     2    1    3      ar
     3    1    4      ar
     4    1    5       1
     5    5    6       1
     6    6    7      ar
     7    6    8      ar
     8    6    9       1
     9    9   10       1
    10   10   11       1
    11   11   12       1
    12   11   13       1
    13   12   17       1
    14   13   14       1
    15   13   15       1
    16   15   16       1
    17   15   17       1
    18   17   18       1
    19   18   19       1
    20   18   28       1
    21   19   20       2
    22   20   21       1
    23   21   22       1
    24   21   28       2
    25   22   23       2
    26   22   24       1
    27   24   25       1
    28   25   26       1
    29   25   27       2
    30   27   28       1
    31   26   40       1
    32   26   39       1
    33   24   38       1
    34   10   29       1
    35   10   30       1
    36   11   31       1
    37   13   32       1
    38   14   33       1
    39   15   34       1
    40   16   35       1
    41   17   36       1
    42   19   37       1
@<TRIPOS>SUBSTRUCTURE
     1 GDP183      1 GROUP             4 B     GDP     0 **** GDP B 183
