@<TRIPOS>MOLECULE
2dte_NAI_2_ligand
   71    75     1     0     0
SMALL
NO_CHARGES


@<TRIPOS>ATOM
     1 PA          10.7830    -5.6610    -0.1890 P.3          1 NAI272   0.0000
     2 O1A         10.2580    -7.0340    -0.0690 O.co2        1 NAI272   0.0000
     3 O2A          9.8000    -4.7020    -0.7350 O.co2        1 NAI272  -1.0000
     4 O5B         12.0720    -5.5840    -1.1600 O.3          1 NAI272   0.0000
     5 C5B         13.0480    -6.6660    -1.1240 C.3          1 NAI272   0.0000
     6 C4B         13.9390    -6.6860    -2.3460 C.3          1 NAI272   0.0000
     7 O4B         14.7930    -7.8310    -2.0890 O.3          1 NAI272   0.0000
     8 C3B         13.2150    -7.0230    -3.6730 C.3          1 NAI272   0.0000
     9 O3B         13.5570    -6.0540    -4.6860 O.3          1 NAI272   0.0000
    10 C2B         13.6980    -8.4450    -3.9960 C.3          1 NAI272   0.0000
    11 O2B         13.8230    -8.7090    -5.4160 O.3          1 NAI272   0.0000
    12 C1B         15.0150    -8.5250    -3.2830 C.3          1 NAI272   0.0000
    13 N9A         15.3520    -9.9060    -2.9790 N.pl3        1 NAI272   0.0000
    14 C8A         14.7410   -10.7910    -2.1040 C.2          1 NAI272   0.0000
    15 N7A         15.3220   -12.0160    -2.0680 N.2          1 NAI272   0.0000
    16 C5A         16.3730   -11.8830    -2.9890 C.ar         1 NAI272   0.0000
    17 C6A         17.3880   -12.8130    -3.4350 C.ar         1 NAI272   0.0000
    18 N6A         17.4840   -14.0730    -2.9870 N.pl3        1 NAI272   0.0000
    19 N1A         18.2940   -12.3350    -4.3790 N.ar         1 NAI272   0.0000
    20 C2A         18.1900   -11.0260    -4.8400 C.ar         1 NAI272   0.0000
    21 N3A         17.2970   -10.1100    -4.4920 N.ar         1 NAI272   0.0000
    22 C4A         16.4070   -10.5880    -3.5600 C.ar         1 NAI272   0.0000
    23 O3          11.3010    -5.2050     1.2190 O.3          1 NAI272   0.0000
    24 PN          11.9230    -3.8400     1.7770 P.3          1 NAI272   0.0000
    25 O1N         10.9380    -3.4250     2.8230 O.co2        1 NAI272   0.0000
    26 O2N         12.0300    -2.8790     0.6680 O.co2        1 NAI272  -1.0000
    27 O5D         13.2510    -4.1390     2.5880 O.3          1 NAI272   0.0000
    28 C5D         14.5350    -3.8150     2.0300 C.3          1 NAI272   0.0000
    29 C4D         15.5840    -4.1040     3.0910 C.3          1 NAI272   0.0000
    30 O4D         15.3110    -3.1730     4.1890 O.3          1 NAI272   0.0000
    31 C3D         15.6100    -5.5120     3.7130 C.3          1 NAI272   0.0000
    32 O3D         16.9490    -5.9710     4.0000 O.3          1 NAI272   0.0000
    33 C2D         14.7630    -5.3160     4.9770 C.3          1 NAI272   0.0000
    34 O2D         15.0430    -6.3530     5.9440 O.3          1 NAI272   0.0000
    35 C1D         15.1890    -3.9260     5.3870 C.3          1 NAI272   0.0000
    36 N1N         14.2490    -3.2600     6.3330 N.pl3        1 NAI272   0.0000
    37 C2N         12.9570    -2.9790     5.8540 C.2          1 NAI272   0.0000
    38 C3N         12.0880    -2.3590     6.7590 C.2          1 NAI272   0.0000
    39 C7N         10.6570    -1.9780     6.4030 C.2          1 NAI272   0.0000
    40 O7N          9.9570    -1.4460     7.2720 O.2          1 NAI272   0.0000
    41 N7N         10.1900    -2.2260     5.1670 N.am         1 NAI272   0.0000
    42 C4N         12.5030    -2.0200     8.1080 C.3          1 NAI272   0.0000
    43 C5N         13.8380    -2.3640     8.4470 C.2          1 NAI272   0.0000
    44 C6N         14.7460    -2.9740     7.6250 C.2          1 NAI272   0.0000
    45 H5B1        12.5592    -7.5367    -1.0697 H            1 NAI272   0.0000
    46 H5B2        13.6206    -6.5540    -0.3119 H            1 NAI272   0.0000
    47 H4B         14.4714    -5.8431    -2.4240 H            1 NAI272   0.0000
    48 H3B         12.2256    -7.0262    -3.5277 H            1 NAI272   0.0000
    49 H5          13.5240    -6.4875    -5.5866 H            1 NAI272   0.0000
    50 H2B         13.0654    -9.1065    -3.5931 H            1 NAI272   0.0000
    51 H7          14.1398    -9.6474    -5.5540 H            1 NAI272   0.0000
    52 H1B         15.7385    -8.0906    -3.8194 H            1 NAI272   0.0000
    53 H8A         13.9446   -10.5483    -1.5500 H            1 NAI272   0.0000
    54 H6A1        18.2069   -14.6723    -3.3310 H            1 NAI272   0.0000
    55 H6A2        16.8327   -14.4135    -2.3088 H            1 NAI272   0.0000
    56 H2A         18.8709   -10.7421    -5.5151 H            1 NAI272   0.0000
    57 H5D1        14.5628    -2.8477     1.7777 H            1 NAI272   0.0000
    58 H5D2        14.7060    -4.3758     1.2199 H            1 NAI272   0.0000
    59 H4D         16.4878    -3.9015     2.7141 H            1 NAI272   0.0000
    60 H3D         15.1562    -6.1592     3.1005 H            1 NAI272   0.0000
    61 H17         17.4798    -6.0009     3.1530 H            1 NAI272   0.0000
    62 H2D         13.7911    -5.3207     4.7418 H            1 NAI272   0.0000
    63 H19         14.8297    -7.2456     5.5468 H            1 NAI272   0.0000
    64 H1D         16.0886    -3.9835     5.8198 H            1 NAI272   0.0000
    65 H2N         12.6759    -3.2085     4.9222 H            1 NAI272   0.0000
    66 H7N1         9.2512    -1.9778     4.9281 H            1 NAI272   0.0000
    67 H7N2        10.7814    -2.6586     4.4865 H            1 NAI272   0.0000
    68 H4N1        11.8931    -2.4920     8.7446 H            1 NAI272   0.0000
    69 H4N2        12.4025    -1.0315     8.2209 H            1 NAI272   0.0000
    70 H5N         14.1431    -2.1397     9.3725 H            1 NAI272   0.0000
    71 H6N         15.6774    -3.1974     7.9124 H            1 NAI272   0.0000
@<TRIPOS>BOND
     1    1    2      ar
     2    1    3      ar
     3    1    4       1
     4    1   23       1
     5    4    5       1
     6    5    6       1
     7    6    7       1
     8    6    8       1
     9    7   12       1
    10    8    9       1
    11    8   10       1
    12   10   11       1
    13   10   12       1
    14   12   13       1
    15   13   14       1
    16   13   22       1
    17   14   15       2
    18   15   16       1
    19   16   17      ar
    20   16   22      ar
    21   17   18       1
    22   17   19      ar
    23   19   20      ar
    24   20   21      ar
    25   21   22      ar
    26   23   24       1
    27   24   25      ar
    28   24   26      ar
    29   24   27       1
    30   27   28       1
    31   28   29       1
    32   29   30       1
    33   29   31       1
    34   30   35       1
    35   31   32       1
    36   31   33       1
    37   33   34       1
    38   33   35       1
    39   35   36       1
    40   36   37       1
    41   36   44       1
    42   37   38       2
    43   38   39       1
    44   38   42       1
    45   39   40       2
    46   39   41      am
    47   42   43       1
    48   43   44       2
    49   44   71       1
    50    5   45       1
    51    5   46       1
    52    6   47       1
    53    8   48       1
    54    9   49       1
    55   10   50       1
    56   11   51       1
    57   12   52       1
    58   14   53       1
    59   18   54       1
    60   18   55       1
    61   20   56       1
    62   43   70       1
    63   28   57       1
    64   28   58       1
    65   29   59       1
    66   31   60       1
    67   32   61       1
    68   33   62       1
    69   34   63       1
    70   35   64       1
    71   37   65       1
    72   41   66       1
    73   41   67       1
    74   42   68       1
    75   42   69       1
@<TRIPOS>SUBSTRUCTURE
     1 NAI272      1 GROUP             4 B     NAI     0 **** NAI B 272
