@<TRIPOS>MOLECULE
./coach420/3hp8/ligand.pdb
 45 45 0 0 0
SMALL
GASTEIGER

@<TRIPOS>ATOM
      1  C1        -4.1180   -6.6050   -3.2070 C.3   108  SUC108      0.2713
      2  C2        -4.4420   -5.9530   -1.8720 C.3   108  SUC108      0.2406
      3  C3        -3.3640   -4.9050   -1.6880 C.3   108  SUC108      0.2198
      4  C4        -2.0140   -5.5860   -1.5440 C.3   108  SUC108      0.2144
      5  C5        -1.7100   -6.3950   -2.7840 C.3   108  SUC108      0.1835
      6  C6        -0.4680   -7.2760   -2.5960 C.3   108  SUC108      0.2142
      7  O1        -4.1790   -5.6460   -4.2660 O.3   108  SUC108     -0.3033
      8  O2        -5.7220   -5.3280   -1.8730 O.3   108  SUC108     -0.2149
      9  O3        -3.4770   -4.2150   -0.4890 O.3   108  SUC108     -0.2174
     10  O4        -1.0910   -4.5460   -1.4140 O.3   108  SUC108     -0.2176
     11  O5        -2.8140   -7.2070   -3.1230 O.3   108  SUC108     -0.3256
     12  O6        -0.2180   -7.8250   -3.8740 O.3   108  SUC108     -0.2176
     13  C1'       -6.4910   -5.6840   -4.9860 C.3   108  SUC108      0.2406
     14  C2'       -5.0360   -5.9130   -5.3820 C.3   108  SUC108      0.2516
     15  C3'       -4.5460   -5.0040   -6.4890 C.3   108  SUC108      0.2381
     16  C4'       -3.2970   -5.7500   -6.9410 C.3   108  SUC108      0.2167
     17  C5'       -3.8410   -7.1730   -6.9350 C.3   108  SUC108      0.1835
     18  C6'       -2.7720   -8.1630   -6.5520 C.3   108  SUC108      0.2142
     19  O1'       -6.5160   -4.4270   -4.3390 O.3   108  SUC108     -0.2149
     20  O2'       -4.9010   -7.1980   -5.9520 O.3   108  SUC108     -0.3272
     21  O3'       -4.2710   -3.7030   -6.0230 O.3   108  SUC108     -0.2150
     22  O4'       -2.9080   -5.3090   -8.2070 O.3   108  SUC108     -0.2175
     23  O6'       -3.3400   -9.4450   -6.3530 O.3   108  SUC108     -0.2176
     24  C2        16.4900   12.9740    8.3740 C.3   109  SUC109      0.2175
     25  C3        17.3140   11.8400    7.7920 C.3   109  SUC109      0.2175
     26  C4        18.3820   12.3860    6.8580 C.3   109  SUC109      0.2175
     27  C5        19.2450   13.4170    7.6070 C.3   109  SUC109      0.2175
     28  C6        20.2210   14.1040    6.6530 C.3   109  SUC109      0.2175
     29  O1        17.9980   13.1580   10.2670 O.3   109  SUC109     -0.1896
     30  O2        15.4990   12.3710    9.1770 O.3   109  SUC109     -0.2175
     31  O3        16.4890   10.8980    7.1500 O.3   109  SUC109     -0.2175
     32  O4        19.1490   11.2980    6.4120 O.3   109  SUC109     -0.2175
     33  O5        18.4200   14.3850    8.2590 O.3   109  SUC109     -0.2175
     34  O6        21.3900   14.4220    7.3950 O.3   109  SUC109     -0.2175
     35  C1'       18.2970   15.1720   11.6970 C.3   109  SUC109      0.2434
     36  C2'       18.7220   13.7480   11.3500 C.3   109  SUC109      0.2807
     37  C3'       18.5960   12.8130   12.5620 C.3   109  SUC109      0.2409
     38  C4'       19.6730   11.7920   12.3040 C.3   109  SUC109      0.2168
     39  C5'       20.7720   12.7270   11.8500 C.3   109  SUC109      0.1836
     40  C6'       21.8610   12.0220   11.0540 C.3   109  SUC109      0.2142
     41  O1'       16.8910   15.2110   11.8320 O.3   109  SUC109     -0.2148
     42  O2'       20.1190   13.7340   11.0670 O.3   109  SUC109     -0.3253
     43  O3'       17.3770   12.1130   12.6590 O.3   109  SUC109     -0.2149
     44  O4'       19.9460   11.0900   13.4910 O.3   109  SUC109     -0.2175
     45  O6'       22.4700   12.9630   10.1860 O.3   109  SUC109     -0.2176
@<TRIPOS>BOND
     1     1     7    1
     2     1    11    1
     3     1     2    1
     4     2     8    1
     5     2     3    1
     6     3     4    1
     7     3     9    1
     8     4     5    1
     9     4    10    1
    10     5    11    1
    11     5     6    1
    12     6    12    1
    13     7    14    1
    14    13    14    1
    15    13    19    1
    16    14    15    1
    17    14    20    1
    18    15    16    1
    19    15    21    1
    20    16    22    1
    21    16    17    1
    22    17    18    1
    23    17    20    1
    24    18    23    1
    25    24    25    1
    26    24    30    1
    27    25    26    1
    28    25    31    1
    29    26    32    1
    30    26    27    1
    31    27    28    1
    32    27    33    1
    33    28    34    1
    34    29    36    1
    35    35    36    1
    36    35    41    1
    37    36    42    1
    38    36    37    1
    39    37    38    1
    40    37    43    1
    41    38    39    1
    42    38    44    1
    43    39    40    1
    44    39    42    1
    45    40    45    1
