@<TRIPOS>MOLECULE
1esq_TZP_3_ligand
   21    21     1     0     0
SMALL
NO_CHARGES


@<TRIPOS>ATOM
     1 N3          28.6900     5.3630    29.4820 N.2          1 TZP330   0.0000
     2 C2          27.6100     4.5120    29.5910 C.2          1 TZP330   0.0000
     3 S1          28.0320     3.0900    30.5560 S.3          1 TZP330   0.0000
     4 C5          29.6540     3.7130    30.7660 C.2          1 TZP330   0.0000
     5 C4          29.9060     4.9110    30.1690 C.2          1 TZP330   0.0000
     6 CM4         31.2010     5.7200    30.1590 C.3          1 TZP330   0.0000
     7 C6          30.5390     2.8080    31.5910 C.3          1 TZP330   0.0000
     8 C7          29.9560     2.4640    32.9700 C.3          1 TZP330   0.0000
     9 O7          31.0610     2.4900    33.8560 O.3          1 TZP330   0.0000
    10 P1          31.2350     2.2750    35.2380 P.3          1 TZP330   0.0000
    11 O1          31.2960     0.8370    35.5780 O.co2        1 TZP330   0.0000
    12 O2          32.4850     2.9250    35.5930 O.co2        1 TZP330  -1.0000
    13 O3          30.1980     3.1080    36.2530 O.co2        1 TZP330  -1.0000
    14 H1          26.7126     4.6759    29.1813 H            1 TZP330   0.0000
    15 HM41        31.9009     5.2352    30.6835 H            1 TZP330   0.0000
    16 HM42        31.5130     5.8381    29.2163 H            1 TZP330   0.0000
    17 HM43        31.0372     6.6165    30.5707 H            1 TZP330   0.0000
    18 H5          31.4190     3.2637    31.7250 H            1 TZP330   0.0000
    19 H6          30.6781     1.9564    31.0857 H            1 TZP330   0.0000
    20 H7          29.5376     1.5558    32.9574 H            1 TZP330   0.0000
    21 H8          29.2728     3.1420    33.2412 H            1 TZP330   0.0000
@<TRIPOS>BOND
     1    1    2       2
     2    1    5       1
     3    2    3       1
     4    3    4       1
     5    4    5       2
     6    4    7       1
     7    5    6       1
     8    7    8       1
     9    8    9       1
    10    9   10       1
    11   10   11      ar
    12   10   12      ar
    13   10   13      ar
    14    2   14       1
    15    6   15       1
    16    6   16       1
    17    6   17       1
    18    7   18       1
    19    7   19       1
    20    8   20       1
    21    8   21       1
@<TRIPOS>SUBSTRUCTURE
     1 TZP330      1 GROUP             4 C     TZP     0 **** TZP C 330
