@<TRIPOS>MOLECULE
1b9i_PXG_1_ligand
   39    40     1     0     0
SMALL
NO_CHARGES


@<TRIPOS>ATOM
     1 N1          18.4840    32.2010    14.5720 N.ar         1 PXG389   1.0000
     2 C2          18.1700    33.1710    15.5860 C.ar         1 PXG389   0.0000
     3 C2A         18.1280    32.6150    17.0520 C.3          1 PXG389   0.0000
     4 C3          17.8380    34.4880    15.2240 C.ar         1 PXG389   0.0000
     5 O3          17.5570    35.4220    16.0920 O.3          1 PXG389  -1.0000
     6 C5          18.1200    33.8260    12.8020 C.ar         1 PXG389   0.0000
     7 C6          18.5680    32.5440    13.2160 C.ar         1 PXG389   0.0000
     8 C5A         18.1760    34.1630    11.2830 C.3          1 PXG389   0.0000
     9 OP4         18.9930    35.2450    10.8430 O.3          1 PXG389   0.0000
    10 P           18.6960    36.2080     9.5710 P.3          1 PXG389   0.0000
    11 OP1         18.2310    35.1540     8.5010 O.co2        1 PXG389   0.0000
    12 OP2         20.1280    36.6220     9.3240 O.co2        1 PXG389  -1.0000
    13 OP3         17.7470    37.1520     9.9550 O.co2        1 PXG389  -1.0000
    14 C4          17.8100    34.8980    13.7520 C.ar         1 PXG389   0.0000
    15 C4A         17.4800    36.2900    13.2770 C.3          1 PXG389   0.0000
    16 C7          13.4150    40.3560    15.9010 C.2          1 PXG389   0.0000
    17 C8          14.2400    39.7780    14.8250 C.ar         1 PXG389   0.0000
    18 O2          13.6460    39.8090    17.1750 O.co2        1 PXG389   0.0000
    19 C9          15.1360    38.8030    15.1400 C.ar         1 PXG389   0.0000
    20 C10         16.0020    38.1830    14.1570 C.ar         1 PXG389   0.0000
    21 C11         15.9330    38.5980    12.8290 C.ar         1 PXG389   0.0000
    22 C12         14.9330    39.6550    12.4750 C.ar         1 PXG389   0.0000
    23 C13         14.1410    40.2560    13.4120 C.ar         1 PXG389   0.0000
    24 O8          12.5580    41.2380    15.7680 O.co2        1 PXG389  -1.0000
    25 N9          16.9400    37.1360    14.4000 N.pl3        1 PXG389   0.0000
    26 H2A1        17.9034    33.3570    17.6836 H            1 PXG389   0.0000
    27 H2A2        17.4324    31.8996    17.1174 H            1 PXG389   0.0000
    28 H2A3        19.0215    32.2339    17.2897 H            1 PXG389   0.0000
    29 H4          18.9377    31.8959    12.5502 H            1 PXG389   0.0000
    30 H5A1        17.2406    34.3661    10.9936 H            1 PXG389   0.0000
    31 H5A2        18.4996    33.3419    10.8128 H            1 PXG389   0.0000
    32 H4A1        16.7932    36.2330    12.5524 H            1 PXG389   0.0000
    33 H4A2        18.3096    36.7169    12.9171 H            1 PXG389   0.0000
    34 H9          15.1996    38.5013    16.0913 H            1 PXG389   0.0000
    35 H10         16.5328    38.2023    12.1335 H            1 PXG389   0.0000
    36 H11         14.8416    39.9309    11.5182 H            1 PXG389   0.0000
    37 H12         13.5141    40.9933    13.1603 H            1 PXG389   0.0000
    38 H13         17.2455    36.9600    15.3358 H            1 PXG389   0.0000
    39 H14         18.6475    31.2524    14.8429 H            1 PXG389   0.0000
@<TRIPOS>BOND
     1    1    2      ar
     2    1    7      ar
     3    2    3       1
     4    2    4      ar
     5    4    5       1
     6    4   14      ar
     7    6    7      ar
     8    6    8       1
     9    6   14      ar
    10    8    9       1
    11    9   10       1
    12   10   11      ar
    13   10   12      ar
    14   10   13      ar
    15   14   15       1
    16   15   25       1
    17   16   17       1
    18   16   18      ar
    19   16   24      ar
    20   17   19      ar
    21   17   23      ar
    22   19   20      ar
    23   20   21      ar
    24   20   25       1
    25   21   22      ar
    26   22   23      ar
    27    3   26       1
    28    3   27       1
    29    3   28       1
    30    1   39       1
    31    7   29       1
    32    8   30       1
    33    8   31       1
    34   25   38       1
    35   23   37       1
    36   15   32       1
    37   15   33       1
    38   22   36       1
    39   19   34       1
    40   21   35       1
@<TRIPOS>SUBSTRUCTURE
     1 PXG389      1 GROUP             4 A     PXG     0 **** PXG A 389
