@<TRIPOS>MOLECULE
4fj0_NAP_3_ligand
   73    77     1     0     0
SMALL
NO_CHARGES


@<TRIPOS>ATOM
     1 PA           5.4890    11.3040    37.7170 P.3          1 NAP301   0.0000
     2 O1A          6.1050    12.5600    37.2080 O.co2        1 NAP301   0.0000
     3 O2A          4.4190    11.3860    38.6850 O.co2        1 NAP301  -1.0000
     4 O5B          6.5870    10.3740    38.2930 O.3          1 NAP301   0.0000
     5 C5B          7.8340    10.3150    37.5680 C.3          1 NAP301   0.0000
     6 C4B          8.7340     9.1640    38.1030 C.3          1 NAP301   0.0000
     7 O4B          9.9460     9.1740    37.2730 O.3          1 NAP301   0.0000
     8 C3B          9.1520     9.5190    39.5320 C.3          1 NAP301   0.0000
     9 O3B          9.0890     8.3690    40.3650 O.3          1 NAP301   0.0000
    10 C2B         10.5730    10.0190    39.3280 C.3          1 NAP301   0.0000
    11 O2B         11.3710     9.7170    40.4580 O.3          1 NAP301   0.0000
    12 C1B         11.0380     9.1830    38.1420 C.3          1 NAP301   0.0000
    13 N9A         12.2280     9.9040    37.5700 N.pl3        1 NAP301   0.0000
    14 C8A         12.3070    11.1520    37.1150 C.2          1 NAP301   0.0000
    15 N7A         13.5700    11.3910    36.7520 N.2          1 NAP301   0.0000
    16 C5A         14.3020    10.3030    36.9920 C.ar         1 NAP301   0.0000
    17 C6A         15.6410     9.9340    36.8260 C.ar         1 NAP301   0.0000
    18 N6A         16.5870    10.7350    36.3310 N.pl3        1 NAP301   0.0000
    19 N1A         15.9950     8.6970    37.2030 N.ar         1 NAP301   0.0000
    20 C2A         15.1300     7.8400    37.7050 C.ar         1 NAP301   0.0000
    21 N3A         13.8560     8.1550    37.8750 N.ar         1 NAP301   0.0000
    22 C4A         13.4310     9.3680    37.5180 C.ar         1 NAP301   0.0000
    23 O3           5.0450    10.4570    36.4230 O.3          1 NAP301   0.0000
    24 PN           3.9770     9.2760    36.4090 P.3          1 NAP301   0.0000
    25 O1N          4.0890     8.3370    37.5470 O.co2        1 NAP301   0.0000
    26 O2N          2.6420     9.7870    36.0340 O.co2        1 NAP301  -1.0000
    27 O5D          4.4790     8.5220    35.1330 O.3          1 NAP301   0.0000
    28 C5D          5.5340     7.5830    35.1260 C.3          1 NAP301   0.0000
    29 C4D          5.6130     6.9230    33.7760 C.3          1 NAP301   0.0000
    30 O4D          4.3270     6.8530    33.1600 O.3          1 NAP301   0.0000
    31 C3D          6.4720     7.8400    32.9340 C.3          1 NAP301   0.0000
    32 O3D          7.2020     7.0200    32.0580 O.3          1 NAP301   0.0000
    33 C2D          5.4310     8.6460    32.1850 C.3          1 NAP301   0.0000
    34 O2D          5.9400     9.1650    30.9730 O.3          1 NAP301   0.0000
    35 C1D          4.4130     7.5630    31.9150 C.3          1 NAP301   0.0000
    36 N1N          3.0560     8.1030    31.6030 N.ar         1 NAP301   1.0000
    37 C2N          2.3050     8.8390    32.5120 C.ar         1 NAP301   0.0000
    38 C3N          1.0350     9.3020    32.1430 C.ar         1 NAP301   0.0000
    39 C7N          0.1460    10.1260    33.0870 C.2          1 NAP301   0.0000
    40 O7N         -0.9650    10.7250    32.6210 O.2          1 NAP301   0.0000
    41 N7N          0.4750    10.1620    34.3850 N.am         1 NAP301   0.0000
    42 C4N          0.5180     9.0150    30.8860 C.ar         1 NAP301   0.0000
    43 C5N          1.2580     8.2670    29.9910 C.ar         1 NAP301   0.0000
    44 C6N          2.5230     7.8130    30.3470 C.ar         1 NAP301   0.0000
    45 P2B         11.9690    10.8430    41.4040 P.3          1 NAP301   0.0000
    46 O1X         12.6410    10.2350    42.5700 O.co2        1 NAP301   0.0000
    47 O2X         10.7560    11.7080    41.8980 O.co2        1 NAP301  -1.0000
    48 O3X         12.8590    11.8230    40.5780 O.co2        1 NAP301  -1.0000
    49 H5B1         8.3163    11.1844    37.6751 H            1 NAP301   0.0000
    50 H5B2         7.6423    10.1573    36.5993 H            1 NAP301   0.0000
    51 H4B          8.2666     8.2808    38.0635 H            1 NAP301   0.0000
    52 H3B          8.5725    10.2481    39.8961 H            1 NAP301   0.0000
    53 H5           8.1531     8.0168    40.3768 H            1 NAP301   0.0000
    54 H2B         10.5910    10.9963    39.1171 H            1 NAP301   0.0000
    55 H1B         11.2804     8.2556    38.4269 H            1 NAP301   0.0000
    56 H8A         11.5488    11.8013    37.0550 H            1 NAP301   0.0000
    57 H6A1        17.5260    10.4033    36.2405 H            1 NAP301   0.0000
    58 H6A2        16.3567    11.6669    36.0506 H            1 NAP301   0.0000
    59 H2A         15.4444     6.9269    37.9646 H            1 NAP301   0.0000
    60 H5D1         5.3667     6.8892    35.8264 H            1 NAP301   0.0000
    61 H5D2         6.3968     8.0503    35.3191 H            1 NAP301   0.0000
    62 H4D          6.0245     6.0143    33.8468 H            1 NAP301   0.0000
    63 H3D          7.0665     8.4183    33.4928 H            1 NAP301   0.0000
    64 H16          7.7690     6.3887    32.5871 H            1 NAP301   0.0000
    65 H2D          5.0487     9.3701    32.7591 H            1 NAP301   0.0000
    66 H18          6.7188     9.7616    31.1668 H            1 NAP301   0.0000
    67 H1D          4.7280     6.9571    31.1845 H            1 NAP301   0.0000
    68 H2N          2.6683     9.0366    33.4225 H            1 NAP301   0.0000
    69 H7N1        -0.0817    10.6886    35.0275 H            1 NAP301   0.0000
    70 H7N2         1.2773     9.6623    34.7115 H            1 NAP301   0.0000
    71 H4N         -0.3888     9.3495    30.6294 H            1 NAP301   0.0000
    72 H5N          0.8845     8.0524    29.0885 H            1 NAP301   0.0000
    73 H6N          3.0563     7.2730    29.6959 H            1 NAP301   0.0000
@<TRIPOS>BOND
     1    1    2      ar
     2    1    3      ar
     3    1    4       1
     4    1   23       1
     5    4    5       1
     6    5    6       1
     7    6    7       1
     8    6    8       1
     9    7   12       1
    10    8    9       1
    11    8   10       1
    12   10   11       1
    13   10   12       1
    14   11   45       1
    15   12   13       1
    16   13   14       1
    17   13   22       1
    18   14   15       2
    19   15   16       1
    20   16   17      ar
    21   16   22      ar
    22   17   18       1
    23   17   19      ar
    24   19   20      ar
    25   20   21      ar
    26   21   22      ar
    27   23   24       1
    28   24   25      ar
    29   24   26      ar
    30   24   27       1
    31   27   28       1
    32   28   29       1
    33   29   30       1
    34   29   31       1
    35   30   35       1
    36   31   32       1
    37   31   33       1
    38   33   34       1
    39   33   35       1
    40   35   36       1
    41   36   37      ar
    42   36   44      ar
    43   37   38      ar
    44   38   39       1
    45   38   42      ar
    46   39   40       2
    47   39   41      am
    48   42   43      ar
    49   43   44      ar
    50   45   46      ar
    51   45   47      ar
    52   45   48      ar
    53   43   72       1
    54    5   49       1
    55    5   50       1
    56    6   51       1
    57    8   52       1
    58    9   53       1
    59   10   54       1
    60   12   55       1
    61   14   56       1
    62   18   57       1
    63   18   58       1
    64   20   59       1
    65   44   73       1
    66   28   60       1
    67   28   61       1
    68   29   62       1
    69   31   63       1
    70   32   64       1
    71   33   65       1
    72   34   66       1
    73   35   67       1
    74   37   68       1
    75   41   69       1
    76   41   70       1
    77   42   71       1
@<TRIPOS>SUBSTRUCTURE
     1 NAP301      1 GROUP             4 C     NAP     0 **** NAP C 301
