@<TRIPOS>MOLECULE
4x5s_AZM_2_ligand
   18    18     1     0     0
SMALL
NO_CHARGES


@<TRIPOS>ATOM
     1 C1          21.0570    82.4430    14.9320 C.2          1 AZM302   0.0000
     2 C2          20.3050    84.3880    13.9290 C.2          1 AZM302   0.0000
     3 C3          19.3940    85.2960    11.8710 C.2          1 AZM302   0.0000
     4 C4          19.2410    86.6080    11.1670 C.3          1 AZM302   0.0000
     5 N1          23.0850    80.9030    15.7440 N.3          1 AZM302  -1.0000
     6 N2          20.7410    84.6020    15.1410 N.2          1 AZM302   0.0000
     7 N3          21.1830    83.4430    15.7170 N.2          1 AZM302   0.0000
     8 N4          19.8560    85.4120    13.1620 N.am         1 AZM302   0.0000
     9 O1          20.8540    80.5860    16.6310 O.2          1 AZM302   0.0000
    10 O2          21.3720    80.0020    14.2560 O.2          1 AZM302   0.0000
    11 O3          19.1370    84.2050    11.3780 O.2          1 AZM302   0.0000
    12 S1          21.5540    80.8340    15.4140 S.o2         1 AZM302   0.0000
    13 S2          20.3850    82.7460    13.3880 S.3          1 AZM302   0.0000
    14 H1          18.9036    86.4509    10.2389 H            1 AZM302   0.0000
    15 H2          18.5901    87.1801    11.6660 H            1 AZM302   0.0000
    16 H3          20.1272    87.0695    11.1258 H            1 AZM302   0.0000
    17 H4          23.2078    81.1239    16.7115 H            1 AZM302   0.0000
    18 H5          19.8610    86.3260    13.5676 H            1 AZM302   0.0000
@<TRIPOS>BOND
     1    1    7       2
     2    1   12       1
     3    1   13       1
     4    2    6       2
     5    2    8       1
     6    2   13       1
     7    3    4       1
     8    3    8      am
     9    3   11       2
    10    5   12       1
    11    6    7       1
    12    9   12       2
    13   10   12       2
    14    4   14       1
    15    4   15       1
    16    4   16       1
    17    8   18       1
    18    5   17       1
@<TRIPOS>SUBSTRUCTURE
     1 AZM302      1 GROUP             4 B     AZM     0 **** AZM B 302
