@<TRIPOS>MOLECULE
1jf2_CZH_1_ligand
   55    59     1     0     0
SMALL
NO_CHARGES


@<TRIPOS>ATOM
     1 N1          52.9800    27.8310   -61.2300 N.2          1 CZH196   0.0000
     2 C2          53.8420    28.8590   -60.7550 C.3          1 CZH196   0.0000
     3 C3          54.8380    28.0340   -59.8260 C.2          1 CZH196   0.0000
     4 N4          54.4710    26.7760   -59.8640 N.pl3        1 CZH196   0.0000
     5 C5          55.1000    25.6250   -59.1450 C.2          1 CZH196   0.0000
     6 C6          54.5190    24.3830   -59.3350 C.2          1 CZH196   0.0000
     7 N7          53.3140    24.2870   -60.2380 N.2          1 CZH196   0.0000
     8 C8          52.7700    25.3500   -60.8800 C.2          1 CZH196   0.0000
     9 C9          53.3870    26.7030   -60.6860 C.2          1 CZH196   0.0000
    10 C10         54.5670    29.5840   -61.9580 C.3          1 CZH196   0.0000
    11 C11         55.4480    30.7380   -61.5130 C.ar         1 CZH196   0.0000
    12 C12         54.8490    32.0420   -61.1840 C.ar         1 CZH196   0.0000
    13 C13         55.6720    33.1400   -60.7570 C.ar         1 CZH196   0.0000
    14 C14         57.0980    32.9550   -60.6510 C.ar         1 CZH196   0.0000
    15 C15         57.7130    31.6690   -60.9730 C.ar         1 CZH196   0.0000
    16 C16         56.8800    30.5630   -61.4060 C.ar         1 CZH196   0.0000
    17 O17         57.8370    33.9980   -60.2530 O.3          1 CZH196   0.0000
    18 O18         55.7700    28.5090   -59.1900 O.2          1 CZH196   0.0000
    19 C19         54.9640    23.1400   -58.6900 C.ar         1 CZH196   0.0000
    20 C20         54.5680    21.8620   -59.2520 C.ar         1 CZH196   0.0000
    21 C21         54.9800    20.6390   -58.5910 C.ar         1 CZH196   0.0000
    22 C22         55.7780    20.6930   -57.3790 C.ar         1 CZH196   0.0000
    23 C23         56.1730    21.9550   -56.8260 C.ar         1 CZH196   0.0000
    24 C24         55.7740    23.1580   -57.4660 C.ar         1 CZH196   0.0000
    25 O25         56.1440    19.5450   -56.7730 O.3          1 CZH196   0.0000
    26 C26         51.5570    25.1120   -61.7470 C.3          1 CZH196   0.0000
    27 C27         51.8610    24.5460   -63.0930 C.ar         1 CZH196   0.0000
    28 C28         51.7470    25.3970   -64.2620 C.ar         1 CZH196   0.0000
    29 C29         52.0360    24.8610   -65.5900 C.ar         1 CZH196   0.0000
    30 C30         52.4370    23.4810   -65.7450 C.ar         1 CZH196   0.0000
    31 C31         52.5520    22.6260   -64.5720 C.ar         1 CZH196   0.0000
    32 C32         52.2670    23.1490   -63.2530 C.ar         1 CZH196   0.0000
    33 O33         52.9190    29.7780   -60.1150 O.3          1 CZH196   0.0000
    34 O34         52.4240    29.0410   -59.0280 O.3          1 CZH196   0.0000
    35 H1          55.8996    25.7466   -58.5569 H            1 CZH196   0.0000
    36 H2          53.8709    29.9374   -62.5829 H            1 CZH196   0.0000
    37 H3          55.1359    28.9152   -62.4366 H            1 CZH196   0.0000
    38 H4          53.8594    32.1649   -61.2584 H            1 CZH196   0.0000
    39 H5          55.2597    34.0237   -60.5356 H            1 CZH196   0.0000
    40 H6          58.7031    31.5520   -60.8953 H            1 CZH196   0.0000
    41 H7          57.2950    29.6812   -61.6301 H            1 CZH196   0.0000
    42 H8          58.8291    33.9047   -60.1686 H            1 CZH196   0.0000
    43 H9          54.0172    21.8252   -60.0858 H            1 CZH196   0.0000
    44 H10         54.7132    19.7537   -58.9718 H            1 CZH196   0.0000
    45 H11         56.7266    21.9880   -55.9939 H            1 CZH196   0.0000
    46 H12         56.0506    24.0358   -57.0748 H            1 CZH196   0.0000
    47 H13         56.6935    19.5735   -55.9380 H            1 CZH196   0.0000
    48 H14         51.0876    25.9858   -61.8742 H            1 CZH196   0.0000
    49 H15         50.9518    24.4749   -61.2696 H            1 CZH196   0.0000
    50 H16         51.4701    26.3523   -64.1588 H            1 CZH196   0.0000
    51 H17         51.9562    25.4504   -66.3939 H            1 CZH196   0.0000
    52 H18         52.6347    23.1149   -66.6543 H            1 CZH196   0.0000
    53 H19         52.8297    21.6713   -64.6785 H            1 CZH196   0.0000
    54 H20         52.3474    22.5563   -62.4516 H            1 CZH196   0.0000
    55 H21         52.6443    29.5154   -58.1757 H            1 CZH196   0.0000
@<TRIPOS>BOND
     1    1    2       1
     2    1    9       2
     3    2    3       1
     4    2   10       1
     5    2   33       1
     6    3    4       1
     7    3   18       2
     8    4    5       1
     9    4    9       1
    10    5    6       2
    11    6    7       1
    12    6   19       1
    13    7    8       2
    14    8    9       1
    15    8   26       1
    16   10   11       1
    17   11   12      ar
    18   11   16      ar
    19   12   13      ar
    20   13   14      ar
    21   14   15      ar
    22   14   17       1
    23   15   16      ar
    24   19   20      ar
    25   19   24      ar
    26   20   21      ar
    27   21   22      ar
    28   22   23      ar
    29   22   25       1
    30   23   24      ar
    31   26   27       1
    32   27   28      ar
    33   27   32      ar
    34   28   29      ar
    35   29   30      ar
    36   30   31      ar
    37   31   32      ar
    38   33   34       1
    39    5   35       1
    40   10   36       1
    41   10   37       1
    42   12   38       1
    43   13   39       1
    44   15   40       1
    45   16   41       1
    46   17   42       1
    47   20   43       1
    48   21   44       1
    49   23   45       1
    50   24   46       1
    51   25   47       1
    52   26   48       1
    53   26   49       1
    54   28   50       1
    55   29   51       1
    56   30   52       1
    57   31   53       1
    58   32   54       1
    59   34   55       1
@<TRIPOS>SUBSTRUCTURE
     1 CZH196      1 GROUP             4 A     CZH     0 **** CZH A 196
