@<TRIPOS>MOLECULE
4jnn_BEN_1_ligand
   18    18     1     0     0
SMALL
NO_CHARGES


@<TRIPOS>ATOM
     1 C1           9.4060   125.9400    92.2890 C.ar         1 BEN301   0.0000
     2 C2          10.3610   126.7590    91.7090 C.ar         1 BEN301   0.0000
     3 C3          11.6650   126.3020    91.6190 C.ar         1 BEN301   0.0000
     4 C4          12.0180   125.0470    92.1110 C.ar         1 BEN301   0.0000
     5 C5          11.0620   124.2230    92.7000 C.ar         1 BEN301   0.0000
     6 C6           9.7590   124.6830    92.7890 C.ar         1 BEN301   0.0000
     7 C            7.9870   126.4150    92.4120 C.cat        1 BEN301   0.0000
     8 N1           7.3280   126.6600    91.4090 N.pl3        1 BEN301   1.0000
     9 N2           7.4910   126.5560    93.6520 N.pl3        1 BEN301   0.0000
    10 H1          10.1132   127.6635    91.3618 H            1 BEN301   0.0000
    11 H2          12.3624   126.8801    91.1954 H            1 BEN301   0.0000
    12 H3          12.9656   124.7354    92.0406 H            1 BEN301   0.0000
    13 H4          11.3108   123.3201    93.0505 H            1 BEN301   0.0000
    14 H5           9.0611   124.1084    93.2166 H            1 BEN301   0.0000
    15 H6           6.3833   126.9761    91.4963 H            1 BEN301   0.0000
    16 H7           7.7347   126.5439    90.5028 H            1 BEN301   0.0000
    17 H8           6.5504   126.8699    93.7816 H            1 BEN301   0.0000
    18 H9           8.0622   126.3471    94.4458 H            1 BEN301   0.0000
@<TRIPOS>BOND
     1    1    2      ar
     2    1    6      ar
     3    1    7       1
     4    2    3      ar
     5    3    4      ar
     6    4    5      ar
     7    5    6      ar
     8    7    8      ar
     9    7    9      ar
    10    2   10       1
    11    3   11       1
    12    4   12       1
    13    5   13       1
    14    6   14       1
    15    8   15       1
    16    8   16       1
    17    9   17       1
    18    9   18       1
@<TRIPOS>SUBSTRUCTURE
     1 BEN301      1 GROUP             4 A     BEN     0 **** BEN A 301
