@<TRIPOS>MOLECULE
3ben_LEH_2_ligand
   63    63     1     0     0
SMALL
NO_CHARGES


@<TRIPOS>ATOM
     1 O3          -1.6840    19.1560   -27.3990 O.2          1 LEH500   0.0000
     2 C7          -2.0210    19.4950   -26.2630 C.2          1 LEH500   0.0000
     3 N1          -3.2590    19.9020   -25.8930 N.am         1 LEH500   0.0000
     4 C6          -4.4870    20.0470   -26.6890 C.3          1 LEH500   0.0000
     5 C5          -5.0250    18.6180   -26.8980 C.3          1 LEH500   0.0000
     6 C4          -4.2270    17.6630   -27.7910 C.3          1 LEH500   0.0000
     7 C3          -4.2000    16.2520   -27.2200 C.3          1 LEH500   0.0000
     8 C2          -4.7770    17.6600   -29.2060 C.3          1 LEH500   0.0000
     9 C1          -5.5230    20.8760   -25.9200 C.2          1 LEH500   0.0000
    10 O2          -5.2820    21.1550   -24.7220 O.co2        1 LEH500   0.0000
    11 O1          -6.6040    21.2740   -26.4480 O.co2        1 LEH500  -1.0000
    12 C8          -0.9800    19.4660   -25.1520 C.3          1 LEH500   0.0000
    13 C9          -0.9070    20.8190   -24.4240 C.3          1 LEH500   0.0000
    14 C10          0.3760    21.6060   -24.7170 C.3          1 LEH500   0.0000
    15 C11          0.1460    23.1010   -24.9830 C.3          1 LEH500   0.0000
    16 C12          0.5650    23.9780   -23.8010 C.3          1 LEH500   0.0000
    17 C13          1.9030    24.6760   -24.0350 C.3          1 LEH500   0.0000
    18 C14          2.1970    25.7360   -22.9680 C.3          1 LEH500   0.0000
    19 C15          3.2320    25.2670   -21.9410 C.3          1 LEH500   0.0000
    20 C16          3.0580    25.9810   -20.6000 C.3          1 LEH500   0.0000
    21 C17          1.9700    25.3100   -19.7540 C.3          1 LEH500   0.0000
    22 C18          2.1300    25.7570   -18.3040 C.3          1 LEH500   0.0000
    23 N2           1.3130    24.8880   -17.4150 N.pl3        1 LEH500   0.0000
    24 C20          0.1920    24.4230   -17.6370 C.2          1 LEH500   0.0000
    25 C21         -0.1910    23.8200   -16.6480 C.2          1 LEH500   0.0000
    26 N3           0.6540    23.9060   -15.7220 N.2          1 LEH500   0.0000
    27 C19          1.6730    24.5190   -16.2460 C.2          1 LEH500   0.0000
    28 H1          -3.3525    20.1415   -24.9266 H            1 LEH500   0.0000
    29 H2          -4.2828    20.4746   -27.5696 H            1 LEH500   0.0000
    30 H3          -5.9385    18.7012   -27.2961 H            1 LEH500   0.0000
    31 H4          -5.0922    18.1924   -25.9956 H            1 LEH500   0.0000
    32 H5          -3.2847    17.9956   -27.8296 H            1 LEH500   0.0000
    33 H6          -3.6724    15.6571   -27.8264 H            1 LEH500   0.0000
    34 H7          -3.7750    16.2667   -26.3149 H            1 LEH500   0.0000
    35 H8          -5.1349    15.9054   -27.1437 H            1 LEH500   0.0000
    36 H9          -4.2421    17.0311   -29.7702 H            1 LEH500   0.0000
    37 H10         -5.7323    17.3647   -29.1917 H            1 LEH500   0.0000
    38 H11         -4.7189    18.5823   -29.5882 H            1 LEH500   0.0000
    39 H12         -0.0853    19.2600   -25.5484 H            1 LEH500   0.0000
    40 H13         -1.2249    18.7541   -24.4938 H            1 LEH500   0.0000
    41 H14         -0.9570    20.6512   -23.4394 H            1 LEH500   0.0000
    42 H15         -1.6895    21.3732   -24.7078 H            1 LEH500   0.0000
    43 H16          0.8123    21.2068   -25.5234 H            1 LEH500   0.0000
    44 H17          0.9860    21.5171   -23.9296 H            1 LEH500   0.0000
    45 H18         -0.8265    23.2488   -25.1630 H            1 LEH500   0.0000
    46 H19          0.6782    23.3694   -25.7859 H            1 LEH500   0.0000
    47 H20          0.6416    23.4030   -22.9865 H            1 LEH500   0.0000
    48 H21         -0.1379    24.6737   -23.6530 H            1 LEH500   0.0000
    49 H22          1.8830    25.1184   -24.9316 H            1 LEH500   0.0000
    50 H23          2.6311    23.9908   -24.0175 H            1 LEH500   0.0000
    51 H24          1.3463    25.9530   -22.4892 H            1 LEH500   0.0000
    52 H25          2.5440    26.5577   -23.4200 H            1 LEH500   0.0000
    53 H26          4.1483    25.4573   -22.2935 H            1 LEH500   0.0000
    54 H27          3.1267    24.2825   -21.8005 H            1 LEH500   0.0000
    55 H28          2.8007    26.9326   -20.7678 H            1 LEH500   0.0000
    56 H29          3.9238    25.9529   -20.1004 H            1 LEH500   0.0000
    57 H30          2.0643    24.3161   -19.8118 H            1 LEH500   0.0000
    58 H31          1.0680    25.5794   -20.0913 H            1 LEH500   0.0000
    59 H32          1.8247    26.7049   -18.2133 H            1 LEH500   0.0000
    60 H33          3.0923    25.6901   -18.0404 H            1 LEH500   0.0000
    61 H34         -0.3201    24.5241   -18.4900 H            1 LEH500   0.0000
    62 H35         -1.0578    23.3255   -16.5832 H            1 LEH500   0.0000
    63 H36          2.5639    24.6719   -15.8183 H            1 LEH500   0.0000
@<TRIPOS>BOND
     1    1    2       2
     2    2    3      am
     3    2   12       1
     4    3    4       1
     5    4    5       1
     6    4    9       1
     7    5    6       1
     8    6    7       1
     9    6    8       1
    10    9   10      ar
    11    9   11      ar
    12   12   13       1
    13   13   14       1
    14   14   15       1
    15   15   16       1
    16   16   17       1
    17   17   18       1
    18   18   19       1
    19   19   20       1
    20   20   21       1
    21   21   22       1
    22   22   23       1
    23   23   24       1
    24   23   27       1
    25   24   25       2
    26   25   26       1
    27   26   27       2
    28    3   28       1
    29    4   29       1
    30    5   30       1
    31    5   31       1
    32    6   32       1
    33    7   33       1
    34    7   34       1
    35    7   35       1
    36    8   36       1
    37    8   37       1
    38    8   38       1
    39   27   63       1
    40   12   39       1
    41   12   40       1
    42   13   41       1
    43   13   42       1
    44   14   43       1
    45   14   44       1
    46   15   45       1
    47   15   46       1
    48   16   47       1
    49   16   48       1
    50   17   49       1
    51   17   50       1
    52   18   51       1
    53   18   52       1
    54   19   53       1
    55   19   54       1
    56   20   55       1
    57   20   56       1
    58   21   57       1
    59   21   58       1
    60   22   59       1
    61   22   60       1
    62   24   61       1
    63   25   62       1
@<TRIPOS>SUBSTRUCTURE
     1 LEH500      1 GROUP             4 B     LEH     0 **** LEH B 500
