@<TRIPOS>MOLECULE
4an2_EUI_1_ligand
   52    55     1     0     0
SMALL
NO_CHARGES


@<TRIPOS>ATOM
     1 O20        -31.1580    12.8710    -6.2920 O.2          1 EUI1382   0.0000
     2 C18        -30.6740    12.7290    -5.1760 C.2          1 EUI1382   0.0000
     3 C15        -31.1960    11.7010    -4.2240 C.ar         1 EUI1382   0.0000
     4 C14        -30.2890    11.0380    -3.3310 C.ar         1 EUI1382   0.0000
     5 C13        -30.7470    10.0440    -2.4520 C.ar         1 EUI1382   0.0000
     6 C12        -32.1190     9.7390    -2.5130 C.ar         1 EUI1382   0.0000
     7 F17        -32.7780     8.8720    -1.7900 F            1 EUI1382   0.0000
     8 C11        -32.9780    10.3550    -3.3910 C.ar         1 EUI1382   0.0000
     9 F16        -34.2420    10.0390    -3.3390 F            1 EUI1382   0.0000
    10 C10        -32.5580    11.3320    -4.2630 C.ar         1 EUI1382   0.0000
    11 N9         -33.5470    11.8970    -5.0440 N.pl3        1 EUI1382   0.0000
    12 C5         -34.8100    12.4390    -4.7530 C.ar         1 EUI1382   0.0000
    13 C4         -35.3320    12.4230    -3.4350 C.ar         1 EUI1382   0.0000
    14 C3         -36.6090    12.9830    -3.1520 C.ar         1 EUI1382   0.0000
    15 C2         -37.3470    13.5770    -4.1780 C.ar         1 EUI1382   0.0000
    16 I8         -39.3310    14.4550    -3.8890 I            1 EUI1382   0.0000
    17 C6         -35.5700    13.0360    -5.7550 C.ar         1 EUI1382   0.0000
    18 F7         -35.1060    13.0620    -7.0100 F            1 EUI1382   0.0000
    19 C1         -36.8320    13.5950    -5.4590 C.ar         1 EUI1382   0.0000
    20 N19        -29.6500    13.5370    -4.8420 N.am         1 EUI1382   0.0000
    21 C23        -28.9250    13.6760    -3.5900 C.3          1 EUI1382   0.0000
    22 C22        -28.2250    14.8240    -4.4330 C.3          1 EUI1382   0.0000
    23 C21        -29.0660    14.5390    -5.7280 C.3          1 EUI1382   0.0000
    24 O24        -28.5980    16.1420    -4.0240 O.3          1 EUI1382   0.0000
    25 C25        -26.7130    14.7600    -4.6300 C.3          1 EUI1382   0.0000
    26 C30        -26.1890    13.3010    -4.7850 C.3          1 EUI1382   0.0000
    27 C29        -24.6570    13.3010    -4.6250 C.3          1 EUI1382   0.0000
    28 C28        -24.2860    13.7990    -3.2030 C.3          1 EUI1382   0.0000
    29 C27        -24.8170    15.2450    -3.0510 C.3          1 EUI1382   0.0000
    30 N26        -26.2470    15.4030    -3.3920 N.4          1 EUI1382   1.0000
    31 H1         -29.3205    11.2868    -3.3350 H            1 EUI1382   0.0000
    32 H2         -30.1313     9.5778    -1.8167 H            1 EUI1382   0.0000
    33 H3         -33.3167    11.9263    -6.0167 H            1 EUI1382   0.0000
    34 H4         -34.7968    12.0136    -2.6961 H            1 EUI1382   0.0000
    35 H5         -36.9764    12.9514    -2.2225 H            1 EUI1382   0.0000
    36 H6         -37.3653    14.0137    -6.1940 H            1 EUI1382   0.0000
    37 H7         -28.3450    12.9047    -3.3280 H            1 EUI1382   0.0000
    38 H8         -29.4614    13.9731    -2.8001 H            1 EUI1382   0.0000
    39 H9         -29.6770    15.2724    -6.0262 H            1 EUI1382   0.0000
    40 H10        -28.5577    14.1882    -6.5145 H            1 EUI1382   0.0000
    41 H11        -28.5574    16.7589    -4.8100 H            1 EUI1382   0.0000
    42 H12        -26.4461    15.3073    -5.4232 H            1 EUI1382   0.0000
    43 H13        -26.4319    12.9515    -5.6899 H            1 EUI1382   0.0000
    44 H14        -26.5999    12.7204    -4.0821 H            1 EUI1382   0.0000
    45 H15        -24.2505    13.9083    -5.3076 H            1 EUI1382   0.0000
    46 H16        -24.3082    12.3728    -4.7548 H            1 EUI1382   0.0000
    47 H17        -23.2927    13.7880    -3.0877 H            1 EUI1382   0.0000
    48 H18        -24.7080    13.2082    -2.5154 H            1 EUI1382   0.0000
    49 H19        -24.2834    15.8401    -3.6520 H            1 EUI1382   0.0000
    50 H20        -24.6877    15.5286    -2.1008 H            1 EUI1382   0.0000
    51 H21        -26.7810    15.0246    -2.6360 H            1 EUI1382   0.0000
    52 H22        -26.4314    16.3825    -3.4729 H            1 EUI1382   0.0000
@<TRIPOS>BOND
     1    1    2       2
     2    2    3       1
     3    2   20      am
     4    3    4      ar
     5    3   10      ar
     6    4    5      ar
     7    5    6      ar
     8    6    7       1
     9    6    8      ar
    10    8    9       1
    11    8   10      ar
    12   10   11       1
    13   11   12       1
    14   12   13      ar
    15   12   17      ar
    16   13   14      ar
    17   14   15      ar
    18   15   16       1
    19   15   19      ar
    20   17   18       1
    21   17   19      ar
    22   20   21       1
    23   20   23       1
    24   21   22       1
    25   22   23       1
    26   22   24       1
    27   22   25       1
    28   25   26       1
    29   25   30       1
    30   26   27       1
    31   27   28       1
    32   28   29       1
    33   29   30       1
    34    4   31       1
    35    5   32       1
    36   11   33       1
    37   13   34       1
    38   14   35       1
    39   19   36       1
    40   21   37       1
    41   21   38       1
    42   23   39       1
    43   23   40       1
    44   24   41       1
    45   25   42       1
    46   26   43       1
    47   26   44       1
    48   27   45       1
    49   27   46       1
    50   28   47       1
    51   28   48       1
    52   29   49       1
    53   29   50       1
    54   30   51       1
    55   30   52       1
@<TRIPOS>SUBSTRUCTURE
     1 EUI1382     1 GROUP             4 A     EUI     0 **** EUI A1382
