@<TRIPOS>MOLECULE
1jcm_137_1_ligand
   38    38     1     0     0
SMALL
NO_CHARGES


@<TRIPOS>ATOM
     1 P           24.7110    38.9590    70.0040 P.3          1 137400   0.0000
     2 O1P         24.6740    40.4000    70.1610 O.co2        1 137400   0.0000
     3 O2P         26.1330    38.5460    69.8910 O.co2        1 137400  -1.0000
     4 O3P         24.0000    38.2130    71.0910 O.co2        1 137400  -1.0000
     5 O5'         23.9500    38.7480    68.7230 O.3          1 137400   0.0000
     6 C5'         24.3600    38.8280    67.5120 C.3          1 137400   0.0000
     7 C4'         23.3830    38.5920    66.3210 C.3          1 137400   0.0000
     8 O4'         23.1480    37.1960    66.1340 O.3          1 137400   0.0000
     9 C3'         22.0130    39.2940    66.5460 C.3          1 137400   0.0000
    10 O3'         22.3150    40.6650    66.5930 O.3          1 137400   0.0000
    11 C2'         20.9960    39.1160    65.3770 C.3          1 137400   0.0000
    12 O2'         21.4270    39.5350    64.1270 O.3          1 137400   0.0000
    13 C1'         19.6680    39.7990    65.6010 C.3          1 137400   0.0000
    14 NH          19.1490    39.4110    66.8780 N.pl3        1 137400   0.0000
    15 C1          17.2690    39.8130    68.4400 C.ar         1 137400   0.0000
    16 C2          17.7690    39.4190    67.1250 C.ar         1 137400   0.0000
    17 C3          16.8620    39.0280    66.0580 C.ar         1 137400   0.0000
    18 C4          15.4680    39.0310    66.3010 C.ar         1 137400   0.0000
    19 C5          14.9570    39.4170    67.5880 C.ar         1 137400   0.0000
    20 C6          15.8430    39.7980    68.6370 C.ar         1 137400   0.0000
    21 C7          18.1340    40.2260    69.5950 C.2          1 137400   0.0000
    22 O71         19.3610    40.2750    69.5320 O.co2        1 137400   0.0000
    23 O72         17.6050    40.5320    70.6590 O.co2        1 137400  -1.0000
    24 H5'1        25.0951    38.1570    67.4150 H            1 137400   0.0000
    25 H5'2        24.7321    39.7491    67.3973 H            1 137400   0.0000
    26 H4'         23.7982    38.9605    65.4892 H            1 137400   0.0000
    27 H4          22.7454    36.8115    66.9647 H            1 137400   0.0000
    28 H3'         21.6066    38.9967    67.4100 H            1 137400   0.0000
    29 H6          23.1155    40.8497    66.0228 H            1 137400   0.0000
    30 H2'         20.8083    38.1365    65.3043 H            1 137400   0.0000
    31 H8          21.6449    40.5104    64.1592 H            1 137400   0.0000
    32 H1'1        19.0270    39.5278    64.8829 H            1 137400   0.0000
    33 H1'2        19.7939    40.7908    65.5783 H            1 137400   0.0000
    34 HH          19.7787    39.1309    67.6026 H            1 137400   0.0000
    35 H12         17.2191    38.7602    65.1631 H            1 137400   0.0000
    36 H13         14.8355    38.7634    65.5742 H            1 137400   0.0000
    37 H14         13.9700    39.4182    67.7487 H            1 137400   0.0000
    38 H15         15.4674    40.0597    69.5261 H            1 137400   0.0000
@<TRIPOS>BOND
     1    1    2      ar
     2    1    3      ar
     3    1    4      ar
     4    1    5       1
     5    5    6       1
     6    6    7       1
     7    7    8       1
     8    7    9       1
     9    9   10       1
    10    9   11       1
    11   11   12       1
    12   11   13       1
    13   13   14       1
    14   14   16       1
    15   15   16      ar
    16   15   20      ar
    17   15   21       1
    18   16   17      ar
    19   17   18      ar
    20   18   19      ar
    21   19   20      ar
    22   21   22      ar
    23   21   23      ar
    24   19   37       1
    25   20   38       1
    26    6   24       1
    27    6   25       1
    28    7   26       1
    29    8   27       1
    30    9   28       1
    31   10   29       1
    32   11   30       1
    33   12   31       1
    34   13   32       1
    35   13   33       1
    36   14   34       1
    37   17   35       1
    38   18   36       1
@<TRIPOS>SUBSTRUCTURE
     1 137400      1 GROUP             4 P     137     0 **** 137 P 400
