@<TRIPOS>MOLECULE
2zrz_FNR_3_ligand
   50    52     1     0     0
SMALL
NO_CHARGES


@<TRIPOS>ATOM
     1 C9A         44.9940    82.9590    17.2500 C.ar         1 FNR669   0.0000
     2 N10         45.1680    82.9020    18.6680 N.pl3        1 FNR669   0.0000
     3 CAA         45.4450    84.1050    19.3440 C.2          1 FNR669   0.0000
     4 N1          45.6660    84.1700    20.6630 N.2          1 FNR669   0.0000
     5 C2          45.7400    85.3490    21.3010 C.2          1 FNR669   0.0000
     6 O2          45.7010    85.3570    22.5550 O.2          1 FNR669   0.0000
     7 N3          45.9690    86.4990    20.6290 N.pl3        1 FNR669   0.0000
     8 C4          45.8950    86.5650    19.2810 C.2          1 FNR669   0.0000
     9 O4          45.6660    87.6460    18.7030 O.2          1 FNR669   0.0000
    10 C4A         45.6000    85.3270    18.5330 C.2          1 FNR669   0.0000
    11 N5          45.7420    85.2310    17.2060 N.2          1 FNR669   0.0000
    12 C5A         45.2590    84.1560    16.5620 C.ar         1 FNR669   0.0000
    13 C6          45.0990    84.2160    15.1820 C.ar         1 FNR669   0.0000
    14 C7          44.5250    83.1500    14.4910 C.ar         1 FNR669   0.0000
    15 C7M         44.2060    83.3320    13.0200 C.3          1 FNR669   0.0000
    16 C8          44.2590    81.9570    15.1720 C.ar         1 FNR669   0.0000
    17 C8M         43.9100    80.6930    14.4420 C.3          1 FNR669   0.0000
    18 C9          44.4780    81.8750    16.5360 C.ar         1 FNR669   0.0000
    19 C1'         45.4180    81.6430    19.3860 C.3          1 FNR669   0.0000
    20 C2'         44.1120    80.9870    19.8490 C.3          1 FNR669   0.0000
    21 O2'         43.3830    81.8710    20.7110 O.3          1 FNR669   0.0000
    22 C3'         44.3090    79.6240    20.5370 C.3          1 FNR669   0.0000
    23 O3'         44.9080    79.7960    21.8250 O.3          1 FNR669   0.0000
    24 C4'         45.1550    78.6290    19.7480 C.3          1 FNR669   0.0000
    25 O4'         45.0360    78.8620    18.3370 O.3          1 FNR669   0.0000
    26 C5'         44.7430    77.1990    20.0600 C.3          1 FNR669   0.0000
    27 O5'         43.3650    77.0110    19.7310 O.3          1 FNR669   0.0000
    28 P           42.8610    76.2640    18.4050 P.3          1 FNR669   0.0000
    29 O1P         41.4340    75.9400    18.6810 O.co2        1 FNR669   0.0000
    30 O2P         43.7460    75.0720    18.2770 O.co2        1 FNR669  -1.0000
    31 O3P         43.0260    77.3160    17.3550 O.co2        1 FNR669  -1.0000
    32 H1          46.1998    87.3247    21.1438 H            1 FNR669   0.0000
    33 H2          45.3976    85.0290    14.6821 H            1 FNR669   0.0000
    34 H7M1        43.8018    82.4911    12.6601 H            1 FNR669   0.0000
    35 H7M2        43.5590    84.0865    12.9101 H            1 FNR669   0.0000
    36 H7M3        45.0468    83.5384    12.5196 H            1 FNR669   0.0000
    37 H8M1        43.7572    79.9579    15.1025 H            1 FNR669   0.0000
    38 H8M2        43.0787    80.8368    13.9051 H            1 FNR669   0.0000
    39 H8M3        44.6615    80.4421    13.8319 H            1 FNR669   0.0000
    40 H9          44.2633    81.0258    17.0184 H            1 FNR669   0.0000
    41 H1'1        45.9867    81.8334    20.1862 H            1 FNR669   0.0000
    42 H1'2        45.8995    81.0126    18.7772 H            1 FNR669   0.0000
    43 H2'         43.5507    80.8327    19.0359 H            1 FNR669   0.0000
    44 H13         43.1659    82.7135    20.2179 H            1 FNR669   0.0000
    45 H3'         43.4057    79.2169    20.6723 H            1 FNR669   0.0000
    46 H15         44.1915    79.9084    22.5135 H            1 FNR669   0.0000
    47 H4'         46.1127    78.7481    20.0101 H            1 FNR669   0.0000
    48 H17         44.2766    78.3227    17.9730 H            1 FNR669   0.0000
    49 H5'1        44.8796    77.0189    21.0341 H            1 FNR669   0.0000
    50 H5'2        45.3020    76.5675    19.5227 H            1 FNR669   0.0000
@<TRIPOS>BOND
     1    1    2       1
     2    1   12      ar
     3    1   18      ar
     4    2    3       1
     5    2   19       1
     6    3    4       2
     7    3   10       1
     8    4    5       1
     9    5    6       2
    10    5    7       1
    11    7    8       1
    12    8    9       2
    13    8   10       1
    14   10   11       2
    15   11   12       1
    16   12   13      ar
    17   13   14      ar
    18   14   15       1
    19   14   16      ar
    20   16   17       1
    21   16   18      ar
    22   19   20       1
    23   20   21       1
    24   20   22       1
    25   22   23       1
    26   22   24       1
    27   24   25       1
    28   24   26       1
    29   26   27       1
    30   27   28       1
    31   28   29      ar
    32   28   30      ar
    33   28   31      ar
    34    7   32       1
    35   13   33       1
    36   15   34       1
    37   15   35       1
    38   15   36       1
    39   17   37       1
    40   17   38       1
    41   17   39       1
    42   18   40       1
    43   19   41       1
    44   19   42       1
    45   20   43       1
    46   21   44       1
    47   22   45       1
    48   23   46       1
    49   24   47       1
    50   25   48       1
    51   26   49       1
    52   26   50       1
@<TRIPOS>SUBSTRUCTURE
     1 FNR669      1 GROUP             4 C     FNR     0 **** FNR C 669
