@<TRIPOS>MOLECULE
4zz7_NAD_2_ligand
   70    74     1     0     0
SMALL
NO_CHARGES


@<TRIPOS>ATOM
     1 PA         130.0330    21.5820    31.0930 P.3          1 NAD501   0.0000
     2 O1A        130.6740    20.9450    32.3230 O.co2        1 NAD501   0.0000
     3 O2A        128.7170    22.3230    31.2050 O.co2        1 NAD501  -1.0000
     4 O5B        131.1230    22.5930    30.4400 O.3          1 NAD501   0.0000
     5 C5B        132.2710    22.2370    29.6420 C.3          1 NAD501   0.0000
     6 C4B        133.5590    22.9210    30.1440 C.3          1 NAD501   0.0000
     7 O4B        133.2630    23.8260    31.2250 O.3          1 NAD501   0.0000
     8 C3B        134.6770    21.9890    30.6430 C.3          1 NAD501   0.0000
     9 O3B        135.9210    22.2920    29.9690 O.3          1 NAD501   0.0000
    10 C2B        134.7550    22.2070    32.1540 C.3          1 NAD501   0.0000
    11 O2B        136.0800    22.1390    32.7370 O.3          1 NAD501   0.0000
    12 C1B        134.1230    23.5980    32.3410 C.3          1 NAD501   0.0000
    13 N9A        133.4070    23.7300    33.6420 N.pl3        1 NAD501   0.0000
    14 C8A        132.6360    22.7860    34.2380 C.2          1 NAD501   0.0000
    15 N7A        132.1760    23.2180    35.4380 N.2          1 NAD501   0.0000
    16 C5A        132.6510    24.4570    35.6150 C.ar         1 NAD501   0.0000
    17 C6A        132.5200    25.4710    36.6760 C.ar         1 NAD501   0.0000
    18 N6A        131.7690    25.2000    37.7750 N.pl3        1 NAD501   0.0000
    19 N1A        133.1670    26.6500    36.4800 N.ar         1 NAD501   0.0000
    20 C2A        133.9130    26.9080    35.3690 C.ar         1 NAD501   0.0000
    21 N3A        134.0740    26.0170    34.3600 N.ar         1 NAD501   0.0000
    22 C4A        133.4700    24.8000    34.4340 C.ar         1 NAD501   0.0000
    23 O3         129.8640    20.5410    29.8810 O.3          1 NAD501   0.0000
    24 PN         130.4570    19.0390    29.8280 P.3          1 NAD501   0.0000
    25 O1N        131.9900    18.9580    29.6980 O.co2        1 NAD501   0.0000
    26 O2N        129.7330    18.2350    30.9150 O.co2        1 NAD501  -1.0000
    27 O5D        129.7330    18.6700    28.4360 O.3          1 NAD501   0.0000
    28 C5D        128.3090    18.4900    28.3880 C.3          1 NAD501   0.0000
    29 C4D        127.5500    19.7280    27.9070 C.3          1 NAD501   0.0000
    30 O4D        127.9330    20.1020    26.5660 O.3          1 NAD501   0.0000
    31 C3D        126.0230    19.4900    27.8770 C.3          1 NAD501   0.0000
    32 O3D        125.3010    20.0010    29.0170 O.3          1 NAD501   0.0000
    33 C2D        125.5680    20.1500    26.5730 C.3          1 NAD501   0.0000
    34 O2D        124.4860    21.0610    26.7680 O.3          1 NAD501   0.0000
    35 C1D        126.8160    20.8490    26.0440 C.3          1 NAD501   0.0000
    36 N1N        126.7840    21.0430    24.5870 N.ar         1 NAD501   1.0000
    37 C2N        126.2570    22.1810    24.1320 C.ar         1 NAD501   0.0000
    38 C3N        126.1910    22.4310    22.7640 C.ar         1 NAD501   0.0000
    39 C7N        125.5780    23.7150    22.2590 C.2          1 NAD501   0.0000
    40 O7N        126.1710    24.2920    21.3620 O.2          1 NAD501   0.0000
    41 N7N        124.4230    24.2010    22.7750 N.am         1 NAD501   0.0000
    42 C4N        126.6970    21.4940    21.8670 C.ar         1 NAD501   0.0000
    43 C5N        127.2370    20.3070    22.3450 C.ar         1 NAD501   0.0000
    44 C6N        127.2660    20.1160    23.7350 C.ar         1 NAD501   0.0000
    45 H5B1       132.1053    22.5155    28.6960 H            1 NAD501   0.0000
    46 H5B2       132.3960    21.2456    29.6806 H            1 NAD501   0.0000
    47 H4B        133.9294    23.4616    29.3887 H            1 NAD501   0.0000
    48 H3B        134.4233    21.0395    30.4583 H            1 NAD501   0.0000
    49 H5         135.8058    22.1654    28.9838 H            1 NAD501   0.0000
    50 H2B        134.1734    21.5295    32.6043 H            1 NAD501   0.0000
    51 H7         136.2760    21.1973    33.0103 H            1 NAD501   0.0000
    52 H1B        134.8544    24.2795    32.3163 H            1 NAD501   0.0000
    53 H8A        132.4336    21.8894    33.8440 H            1 NAD501   0.0000
    54 H6A1       131.6763    25.8842    38.4984 H            1 NAD501   0.0000
    55 H6A2       131.3088    24.3163    37.8606 H            1 NAD501   0.0000
    56 H2A        134.3635    27.7977    35.2945 H            1 NAD501   0.0000
    57 H5D1       127.9884    18.2601    29.3069 H            1 NAD501   0.0000
    58 H5D2       128.1069    17.7339    27.7656 H            1 NAD501   0.0000
    59 H4D        127.7473    20.4893    28.5246 H            1 NAD501   0.0000
    60 H3D        125.8561    18.5063    27.8102 H            1 NAD501   0.0000
    61 H17        124.3267    19.8022    28.9110 H            1 NAD501   0.0000
    62 H2D        125.2886    19.4410    25.9255 H            1 NAD501   0.0000
    63 H19        123.7039    20.5719    27.1540 H            1 NAD501   0.0000
    64 H1D        126.8461    21.7568    26.4624 H            1 NAD501   0.0000
    65 H2N        125.9069    22.8592    24.7781 H            1 NAD501   0.0000
    66 H7N1       124.0378    25.0539    22.4227 H            1 NAD501   0.0000
    67 H7N2       123.9559    23.7067    23.5081 H            1 NAD501   0.0000
    68 H4N        126.6718    21.6747    20.8838 H            1 NAD501   0.0000
    69 H5N        127.5930    19.6122    21.7200 H            1 NAD501   0.0000
    70 H6N        127.6540    19.2709    24.1028 H            1 NAD501   0.0000
@<TRIPOS>BOND
     1    1    2      ar
     2    1    3      ar
     3    1    4       1
     4    1   23       1
     5    4    5       1
     6    5    6       1
     7    6    7       1
     8    6    8       1
     9    7   12       1
    10    8    9       1
    11    8   10       1
    12   10   11       1
    13   10   12       1
    14   12   13       1
    15   13   14       1
    16   13   22       1
    17   14   15       2
    18   15   16       1
    19   16   17      ar
    20   16   22      ar
    21   17   18       1
    22   17   19      ar
    23   19   20      ar
    24   20   21      ar
    25   21   22      ar
    26   23   24       1
    27   24   25      ar
    28   24   26      ar
    29   24   27       1
    30   27   28       1
    31   28   29       1
    32   29   30       1
    33   29   31       1
    34   30   35       1
    35   31   32       1
    36   31   33       1
    37   33   34       1
    38   33   35       1
    39   35   36       1
    40   36   37      ar
    41   36   44      ar
    42   37   38      ar
    43   38   39       1
    44   38   42      ar
    45   39   40       2
    46   39   41      am
    47   42   43      ar
    48   43   44      ar
    49   44   70       1
    50    5   45       1
    51    5   46       1
    52    6   47       1
    53    8   48       1
    54    9   49       1
    55   10   50       1
    56   11   51       1
    57   12   52       1
    58   14   53       1
    59   18   54       1
    60   18   55       1
    61   20   56       1
    62   43   69       1
    63   28   57       1
    64   28   58       1
    65   29   59       1
    66   31   60       1
    67   32   61       1
    68   33   62       1
    69   34   63       1
    70   35   64       1
    71   37   65       1
    72   41   66       1
    73   41   67       1
    74   42   68       1
@<TRIPOS>SUBSTRUCTURE
     1 NAD501      1 GROUP             4 C     NAD     0 **** NAD C 501
