@<TRIPOS>MOLECULE
4pvd_NDP_2_ligand
   73    77     1     0     0
SMALL
NO_CHARGES


@<TRIPOS>ATOM
     1 PA          16.4300    47.3810   116.7500 P.3          1 NDP401   0.0000
     2 O1A         15.8080    46.1720   117.3360 O.co2        1 NDP401   0.0000
     3 O2A         17.5980    47.0190   115.9140 O.co2        1 NDP401  -1.0000
     4 O5B         15.3340    48.1780   115.8840 O.3          1 NDP401   0.0000
     5 C5B         15.6030    48.6410   114.5800 C.3          1 NDP401   0.0000
     6 C4B         14.3870    48.3880   113.6970 C.3          1 NDP401   0.0000
     7 O4B         14.4830    49.1690   112.5150 O.3          1 NDP401   0.0000
     8 C3B         14.3430    46.9370   113.2490 C.3          1 NDP401   0.0000
     9 O3B         12.9980    46.5270   113.0750 O.3          1 NDP401   0.0000
    10 C2B         15.0760    46.9980   111.9220 C.3          1 NDP401   0.0000
    11 O2B         14.7190    45.9450   111.0690 O.3          1 NDP401   0.0000
    12 C1B         14.6350    48.3420   111.3750 C.3          1 NDP401   0.0000
    13 N9A         15.5820    48.9160   110.4030 N.pl3        1 NDP401   0.0000
    14 C8A         16.8500    49.3850   110.6260 C.2          1 NDP401   0.0000
    15 N7A         17.3530    49.8340   109.4480 N.2          1 NDP401   0.0000
    16 C5A         16.4290    49.6610   108.4830 C.ar         1 NDP401   0.0000
    17 C6A         16.4210    49.9360   107.1150 C.ar         1 NDP401   0.0000
    18 N6A         17.5120    50.3940   106.4970 N.pl3        1 NDP401   0.0000
    19 N1A         15.2930    49.6330   106.3740 N.ar         1 NDP401   0.0000
    20 C2A         14.1880    49.0680   106.9830 C.ar         1 NDP401   0.0000
    21 N3A         14.2100    48.7960   108.3380 N.ar         1 NDP401   0.0000
    22 C4A         15.3120    49.0880   109.0730 C.ar         1 NDP401   0.0000
    23 O3          16.8690    48.4190   117.9050 O.3          1 NDP401   0.0000
    24 PN          15.8480    49.2660   118.8250 P.3          1 NDP401   0.0000
    25 O1N         14.5590    48.5510   118.9300 O.co2        1 NDP401   0.0000
    26 O2N         16.5940    49.6410   120.0490 O.co2        1 NDP401  -1.0000
    27 O5D         15.6570    50.5980   117.9510 O.3          1 NDP401   0.0000
    28 C5D         14.4040    51.0260   117.4610 C.3          1 NDP401   0.0000
    29 C4D         14.4030    52.5510   117.4090 C.3          1 NDP401   0.0000
    30 O4D         14.6330    53.0890   118.7020 O.3          1 NDP401   0.0000
    31 C3D         15.4900    53.1120   116.4990 C.3          1 NDP401   0.0000
    32 O3D         14.9180    54.2020   115.8050 O.3          1 NDP401   0.0000
    33 C2D         16.5530    53.6090   117.4620 C.3          1 NDP401   0.0000
    34 O2D         17.2880    54.7160   116.9960 O.3          1 NDP401   0.0000
    35 C1D         15.6960    54.0220   118.6450 C.3          1 NDP401   0.0000
    36 N1N         16.4560    54.1410   119.9040 N.ar         1 NDP401   1.0000
    37 C2N         16.9520    53.0570   120.5960 C.ar         1 NDP401   0.0000
    38 C3N         17.5810    53.2180   121.8390 C.ar         1 NDP401   0.0000
    39 C7N         18.1310    52.0540   122.6110 C.2          1 NDP401   0.0000
    40 O7N         18.9740    52.3350   123.7020 O.2          1 NDP401   0.0000
    41 N7N         17.8160    50.8040   122.2700 N.am         1 NDP401   0.0000
    42 C4N         17.7460    54.5860   122.4670 C.ar         1 NDP401   0.0000
    43 C5N         17.1590    55.6750   121.6240 C.ar         1 NDP401   0.0000
    44 C6N         16.5570    55.4070   120.4020 C.ar         1 NDP401   0.0000
    45 P2B         15.5590    44.5780   111.1100 P.3          1 NDP401   0.0000
    46 O1X         14.8370    43.6140   110.2020 O.co2        1 NDP401   0.0000
    47 O2X         15.6170    44.0210   112.5120 O.co2        1 NDP401  -1.0000
    48 O3X         16.9770    44.8110   110.6530 O.co2        1 NDP401  -1.0000
    49 H5B1        16.3932    48.1536   114.2085 H            1 NDP401   0.0000
    50 H5B2        15.7985    49.6213   114.6069 H            1 NDP401   0.0000
    51 H4B         13.5498    48.6188   114.1928 H            1 NDP401   0.0000
    52 H3B         14.8200    46.3442   113.8979 H            1 NDP401   0.0000
    53 H5          12.9762    45.5717   112.7803 H            1 NDP401   0.0000
    54 H2B         16.0643    46.9966   112.0748 H            1 NDP401   0.0000
    55 H1B         13.7444    48.2343   110.9332 H            1 NDP401   0.0000
    56 H8A         17.3240    49.3948   111.5065 H            1 NDP401   0.0000
    57 H6A1        17.4876    50.5855   105.5158 H            1 NDP401   0.0000
    58 H6A2        18.3537    50.5456   107.0152 H            1 NDP401   0.0000
    59 H2A         13.3731    48.8562   106.4434 H            1 NDP401   0.0000
    60 H5D1        13.6769    50.7083   118.0696 H            1 NDP401   0.0000
    61 H5D2        14.2560    50.6566   116.5436 H            1 NDP401   0.0000
    62 H4D         13.5117    52.8640   117.0811 H            1 NDP401   0.0000
    63 H3D         15.8479    52.4183   115.8740 H            1 NDP401   0.0000
    64 H16         14.1361    53.8829   115.2695 H            1 NDP401   0.0000
    65 H2D         17.1682    52.8637   117.7190 H            1 NDP401   0.0000
    66 H18         17.7553    54.4720   116.1463 H            1 NDP401   0.0000
    67 H1D         15.3041    54.9187   118.4394 H            1 NDP401   0.0000
    68 H2N         16.8618    52.1409   120.2053 H            1 NDP401   0.0000
    69 H7N1        18.1874    50.0351   122.7904 H            1 NDP401   0.0000
    70 H7N2        17.2084    50.6355   121.4939 H            1 NDP401   0.0000
    71 H4N         18.1963    54.7441   123.3458 H            1 NDP401   0.0000
    72 H5N         17.2016    56.6196   121.9494 H            1 NDP401   0.0000
    73 H6N         16.1851    56.1672   119.8692 H            1 NDP401   0.0000
@<TRIPOS>BOND
     1    1    2      ar
     2    1    3      ar
     3    1    4       1
     4    1   23       1
     5    4    5       1
     6    5    6       1
     7    6    7       1
     8    6    8       1
     9    7   12       1
    10    8    9       1
    11    8   10       1
    12   10   11       1
    13   10   12       1
    14   11   45       1
    15   12   13       1
    16   13   14       1
    17   13   22       1
    18   14   15       2
    19   15   16       1
    20   16   17      ar
    21   16   22      ar
    22   17   18       1
    23   17   19      ar
    24   19   20      ar
    25   20   21      ar
    26   21   22      ar
    27   23   24       1
    28   24   25      ar
    29   24   26      ar
    30   24   27       1
    31   27   28       1
    32   28   29       1
    33   29   30       1
    34   29   31       1
    35   30   35       1
    36   31   32       1
    37   31   33       1
    38   33   34       1
    39   33   35       1
    40   35   36       1
    41   36   37      ar
    42   36   44      ar
    43   37   38      ar
    44   38   39       1
    45   38   42      ar
    46   39   40       2
    47   39   41      am
    48   42   43      ar
    49   43   44      ar
    50   45   46      ar
    51   45   47      ar
    52   45   48      ar
    53   43   72       1
    54    5   49       1
    55    5   50       1
    56    6   51       1
    57    8   52       1
    58    9   53       1
    59   10   54       1
    60   12   55       1
    61   14   56       1
    62   18   57       1
    63   18   58       1
    64   20   59       1
    65   44   73       1
    66   28   60       1
    67   28   61       1
    68   29   62       1
    69   31   63       1
    70   32   64       1
    71   33   65       1
    72   34   66       1
    73   35   67       1
    74   37   68       1
    75   41   69       1
    76   41   70       1
    77   42   71       1
@<TRIPOS>SUBSTRUCTURE
     1 NDP401      1 GROUP             4 B     NDP     0 **** NDP B 401
