@<TRIPOS>MOLECULE
1gqy_ACP_1_ligand
   45    47     1     0     0
SMALL
NO_CHARGES


@<TRIPOS>ATOM
     1 PG          62.9720    53.7860    38.4500 P.3          1 ACP1476   0.0000
     2 O1G         62.5110    54.3680    39.5960 O.co2        1 ACP1476   0.0000
     3 O2G         64.4310    53.5050    38.2980 O.co2        1 ACP1476  -1.0000
     4 O3G         62.0560    52.5370    38.2740 O.co2        1 ACP1476  -1.0000
     5 PB          60.8450    55.5120    36.9620 P.3          1 ACP1476   0.0000
     6 O1B         60.7500    56.4420    38.0220 O.co2        1 ACP1476   0.0000
     7 O2B         59.7010    54.5100    36.8970 O.co2        1 ACP1476  -1.0000
     8 C3B         62.5350    54.7960    36.9110 C.3          1 ACP1476   0.0000
     9 PA          61.4320    57.6340    35.1820 P.3          1 ACP1476   0.0000
    10 O1A         60.3130    58.6150    35.0640 O.co2        1 ACP1476   0.0000
    11 O2A         62.3970    58.1340    36.0670 O.co2        1 ACP1476  -1.0000
    12 O3A         60.7050    56.3190    35.5870 O.3          1 ACP1476   0.0000
    13 O5'         61.8310    57.4810    33.6820 O.3          1 ACP1476   0.0000
    14 C5'         63.1400    56.8090    33.5440 C.3          1 ACP1476   0.0000
    15 C4'         63.3820    56.4740    32.0780 C.3          1 ACP1476   0.0000
    16 O4'         62.4710    55.5080    31.5990 O.3          1 ACP1476   0.0000
    17 C3'         63.3230    57.7790    31.1510 C.3          1 ACP1476   0.0000
    18 O3'         64.5820    58.5200    31.1900 O.3          1 ACP1476   0.0000
    19 C2'         62.9810    57.1160    29.8250 C.3          1 ACP1476   0.0000
    20 O2'         64.2630    56.3760    29.5290 O.3          1 ACP1476   0.0000
    21 C1'         62.0470    56.0010    30.2150 C.3          1 ACP1476   0.0000
    22 N9          60.6440    56.1980    30.3820 N.pl3        1 ACP1476   0.0000
    23 C8          59.9490    57.2600    30.9370 C.2          1 ACP1476   0.0000
    24 N7          58.6140    57.0430    30.8990 N.2          1 ACP1476   0.0000
    25 C5          58.4070    55.7730    30.2780 C.ar         1 ACP1476   0.0000
    26 C6          57.2960    55.0780    29.9890 C.ar         1 ACP1476   0.0000
    27 N6          55.9720    55.3990    30.2130 N.pl3        1 ACP1476   0.0000
    28 N1          57.4350    53.8690    29.3950 N.ar         1 ACP1476   0.0000
    29 C2          58.6600    53.4660    29.1320 C.ar         1 ACP1476   0.0000
    30 N3          59.8950    54.0460    29.3530 N.ar         1 ACP1476   0.0000
    31 C4          59.6750    55.2580    29.9630 C.ar         1 ACP1476   0.0000
    32 H3B1        62.6023    54.1996    36.1111 H            1 ACP1476   0.0000
    33 H3B2        63.1934    55.5438    36.8255 H            1 ACP1476   0.0000
    34 H5'1        63.1418    55.9671    34.0837 H            1 ACP1476   0.0000
    35 H5'2        63.8635    57.4166    33.8716 H            1 ACP1476   0.0000
    36 H4'         64.3016    56.0886    32.0021 H            1 ACP1476   0.0000
    37 H3'         62.5702    58.3699    31.4412 H            1 ACP1476   0.0000
    38 H7          64.7199    58.9890    30.3176 H            1 ACP1476   0.0000
    39 H2'         62.6537    57.7267    29.1039 H            1 ACP1476   0.0000
    40 H9          65.0176    57.0291    29.4645 H            1 ACP1476   0.0000
    41 H1'         62.1773    55.2500    29.5677 H            1 ACP1476   0.0000
    42 H11         60.3779    58.0799    31.3162 H            1 ACP1476   0.0000
    43 H12         55.2500    54.7654    29.9352 H            1 ACP1476   0.0000
    44 H13         55.7351    56.2651    30.6531 H            1 ACP1476   0.0000
    45 H14         58.7059    52.5709    28.6884 H            1 ACP1476   0.0000
@<TRIPOS>BOND
     1    1    2      ar
     2    1    3      ar
     3    1    4      ar
     4    1    8       1
     5    5    6      ar
     6    5    7      ar
     7    5    8       1
     8    5   12       1
     9    9   10      ar
    10    9   11      ar
    11    9   12       1
    12    9   13       1
    13   13   14       1
    14   14   15       1
    15   15   16       1
    16   15   17       1
    17   16   21       1
    18   17   18       1
    19   17   19       1
    20   19   20       1
    21   19   21       1
    22   21   22       1
    23   22   23       1
    24   22   31       1
    25   23   24       2
    26   24   25       1
    27   25   26      ar
    28   25   31      ar
    29   26   27       1
    30   26   28      ar
    31   28   29      ar
    32   29   30      ar
    33   30   31      ar
    34   29   45       1
    35   27   44       1
    36   27   43       1
    37    8   32       1
    38    8   33       1
    39   23   42       1
    40   14   34       1
    41   14   35       1
    42   15   36       1
    43   17   37       1
    44   18   38       1
    45   19   39       1
    46   20   40       1
    47   21   41       1
@<TRIPOS>SUBSTRUCTURE
     1 ACP1476     1 GROUP             4 A     ACP     0 **** ACP A1476
