@<TRIPOS>MOLECULE
1d5c_GDP_1_ligand
   40    42     1     0     0
SMALL
NO_CHARGES


@<TRIPOS>ATOM
     1 PB          24.4490    14.3090    11.5960 P.3          1 GDP201   0.0000
     2 O1B         23.1280    13.7560    11.2970 O.co2        1 GDP201   0.0000
     3 O2B         25.5510    13.5410    11.0260 O.co2        1 GDP201  -1.0000
     4 O3B         24.5940    15.7380    11.1600 O.co2        1 GDP201  -1.0000
     5 O3A         24.6320    14.2110    13.1870 O.3          1 GDP201   0.0000
     6 PA          24.6070    15.3260    14.3580 P.3          1 GDP201   0.0000
     7 O1A         23.3060    16.0000    14.3150 O.co2        1 GDP201   0.0000
     8 O2A         25.7880    16.1970    14.1730 O.co2        1 GDP201  -1.0000
     9 O5'         24.8490    14.3750    15.6220 O.3          1 GDP201   0.0000
    10 C5'         23.8650    13.4180    16.0730 C.3          1 GDP201   0.0000
    11 C4'         23.7620    13.3740    17.6070 C.3          1 GDP201   0.0000
    12 O4'         25.0360    12.8740    18.1390 O.3          1 GDP201   0.0000
    13 C3'         23.5570    14.7490    18.2600 C.3          1 GDP201   0.0000
    14 O3'         22.6270    14.5280    19.3400 O.3          1 GDP201   0.0000
    15 C2'         24.9780    15.1550    18.7050 C.3          1 GDP201   0.0000
    16 O2'         24.9580    16.0890    19.8250 O.3          1 GDP201   0.0000
    17 C1'         25.6620    13.8250    19.0380 C.3          1 GDP201   0.0000
    18 N9          27.1530    13.8480    18.7530 N.pl3        1 GDP201   0.0000
    19 C8          27.8540    14.3490    17.6510 C.2          1 GDP201   0.0000
    20 N7          29.1560    14.2160    17.7010 N.2          1 GDP201   0.0000
    21 C5          29.3480    13.5820    18.9160 C.2          1 GDP201   0.0000
    22 C6          30.5390    13.1420    19.5910 C.2          1 GDP201   0.0000
    23 O6          31.6970    13.2390    19.2070 O.2          1 GDP201   0.0000
    24 N1          30.3110    12.5300    20.8300 N.pl3        1 GDP201   0.0000
    25 C2          29.0300    12.3420    21.4120 C.2          1 GDP201   0.0000
    26 N2          28.9490    11.7520    22.5920 N.pl3        1 GDP201   0.0000
    27 N3          27.9040    12.7470    20.8000 N.2          1 GDP201   0.0000
    28 C4          28.1140    13.3510    19.5740 C.2          1 GDP201   0.0000
    29 H5'1        24.1219    12.5104    15.7408 H            1 GDP201   0.0000
    30 H5'2        22.9735    13.6706    15.6970 H            1 GDP201   0.0000
    31 H4'         23.0206    12.7596    17.8768 H            1 GDP201   0.0000
    32 H3'         23.1888    15.4051    17.6012 H            1 GDP201   0.0000
    33 H5          22.0852    15.3554    19.4879 H            1 GDP201   0.0000
    34 H2'         25.4516    15.5809    17.9341 H            1 GDP201   0.0000
    35 H7          24.0109    16.2806    20.0824 H            1 GDP201   0.0000
    36 H1'         25.4911    13.5719    19.9902 H            1 GDP201   0.0000
    37 H9          27.3916    14.7802    16.8762 H            1 GDP201   0.0000
    38 H10         31.1062    12.2026    21.3403 H            1 GDP201   0.0000
    39 H11         28.0563    11.6098    23.0197 H            1 GDP201   0.0000
    40 H12         29.7804    11.4478    23.0571 H            1 GDP201   0.0000
@<TRIPOS>BOND
     1    1    2      ar
     2    1    3      ar
     3    1    4      ar
     4    1    5       1
     5    5    6       1
     6    6    7      ar
     7    6    8      ar
     8    6    9       1
     9    9   10       1
    10   10   11       1
    11   11   12       1
    12   11   13       1
    13   12   17       1
    14   13   14       1
    15   13   15       1
    16   15   16       1
    17   15   17       1
    18   17   18       1
    19   18   19       1
    20   18   28       1
    21   19   20       2
    22   20   21       1
    23   21   22       1
    24   21   28       2
    25   22   23       2
    26   22   24       1
    27   24   25       1
    28   25   26       1
    29   25   27       2
    30   27   28       1
    31   26   40       1
    32   26   39       1
    33   24   38       1
    34   10   29       1
    35   10   30       1
    36   11   31       1
    37   13   32       1
    38   14   33       1
    39   15   34       1
    40   16   35       1
    41   17   36       1
    42   19   37       1
@<TRIPOS>SUBSTRUCTURE
     1 GDP201      1 GROUP             4 A     GDP     0 **** GDP A 201
