@<TRIPOS>MOLECULE
3a27_SAM_1_ligand
   50    52     1     0     0
SMALL
NO_CHARGES


@<TRIPOS>ATOM
     1 N           -8.9620   -10.0380   -17.3490 N.4          1 SAM250   1.0000
     2 CA          -8.4970    -9.3050   -18.5220 C.3          1 SAM250   0.0000
     3 C           -8.8980    -7.8300   -18.4530 C.2          1 SAM250   0.0000
     4 O           -9.6230    -7.4130   -17.5480 O.co2        1 SAM250   0.0000
     5 OXT         -8.4990    -7.0180   -19.2900 O.co2        1 SAM250  -1.0000
     6 CB          -8.9620    -9.9730   -19.8180 C.3          1 SAM250   0.0000
     7 CG          -9.8820   -11.1890   -19.6760 C.3          1 SAM250   0.0000
     8 SD         -10.8380   -11.4800   -21.1900 S.3          1 SAM250   1.0000
     9 CE         -12.5100   -11.1240   -20.6000 C.3          1 SAM250   0.0000
    10 C5'        -10.9260   -13.2760   -21.4620 C.3          1 SAM250   0.0000
    11 C4'        -12.2140   -13.6440   -22.2170 C.3          1 SAM250   0.0000
    12 O4'        -12.0010   -14.5510   -23.2810 O.3          1 SAM250   0.0000
    13 C3'        -13.3010   -14.2650   -21.3470 C.3          1 SAM250   0.0000
    14 O3'        -14.4170   -13.4090   -21.3920 O.3          1 SAM250   0.0000
    15 C2'        -13.6750   -15.5690   -22.0220 C.3          1 SAM250   0.0000
    16 O2'        -15.0710   -15.7580   -22.0160 O.3          1 SAM250   0.0000
    17 C1'        -13.1510   -15.3740   -23.4340 C.3          1 SAM250   0.0000
    18 N9         -12.7830   -16.6320   -24.1130 N.pl3        1 SAM250   0.0000
    19 C8         -12.2250   -17.7420   -23.5380 C.2          1 SAM250   0.0000
    20 N7         -12.0220   -18.6740   -24.5040 N.2          1 SAM250   0.0000
    21 C5         -12.4380   -18.1640   -25.6870 C.ar         1 SAM250   0.0000
    22 C6         -12.4540   -18.6870   -26.9710 C.ar         1 SAM250   0.0000
    23 N6         -12.0010   -19.9190   -27.1910 N.pl3        1 SAM250   0.0000
    24 N1         -12.9470   -17.9250   -28.0120 N.ar         1 SAM250   0.0000
    25 C2         -13.4270   -16.6440   -27.7750 C.ar         1 SAM250   0.0000
    26 N3         -13.4090   -16.1320   -26.4890 N.ar         1 SAM250   0.0000
    27 C4         -12.9240   -16.8820   -25.4600 C.ar         1 SAM250   0.0000
    28 H1          -8.6853   -10.9961   -17.4233 H            1 SAM250   0.0000
    29 H2          -8.5604    -9.6380   -16.5252 H            1 SAM250   0.0000
    30 HA          -7.4976    -9.3396   -18.5144 H            1 SAM250   0.0000
    31 HB1         -8.1464   -10.2671   -20.3163 H            1 SAM250   0.0000
    32 HB2         -9.4505    -9.2850   -20.3547 H            1 SAM250   0.0000
    33 HG1        -10.5145   -11.0311   -18.9177 H            1 SAM250   0.0000
    34 HG2         -9.3252   -11.9969   -19.4830 H            1 SAM250   0.0000
    35 HE1        -13.1610   -11.2469   -21.3491 H            1 SAM250   0.0000
    36 HE2        -12.7398   -11.7479   -19.8530 H            1 SAM250   0.0000
    37 HE3        -12.5538   -10.1804   -20.2717 H            1 SAM250   0.0000
    38 H5'1       -10.9178   -13.7435   -20.5780 H            1 SAM250   0.0000
    39 H5'2       -10.1347   -13.5665   -22.0001 H            1 SAM250   0.0000
    40 H4'        -12.5853   -12.8019   -22.6083 H            1 SAM250   0.0000
    41 H3'        -12.9852   -14.4115   -20.4095 H            1 SAM250   0.0000
    42 H15        -14.7323   -13.3218   -22.3370 H            1 SAM250   0.0000
    43 H2'        -13.2144   -16.3384   -21.5795 H            1 SAM250   0.0000
    44 H17        -15.4654   -15.3559   -22.8423 H            1 SAM250   0.0000
    45 H1'        -13.8359   -14.8902   -23.9789 H            1 SAM250   0.0000
    46 H19        -12.0039   -17.8485   -22.5686 H            1 SAM250   0.0000
    47 H20        -12.0118   -20.2979   -28.1164 H            1 SAM250   0.0000
    48 H21        -11.6499   -20.4658   -26.4309 H            1 SAM250   0.0000
    49 H22        -13.7841   -16.0937   -28.5298 H            1 SAM250   0.0000
    50 H23         -9.9590    -9.9822   -17.2947 H            1 SAM250   0.0000
@<TRIPOS>BOND
     1    1    2       1
     2    2    3       1
     3    2    6       1
     4    3    4      ar
     5    3    5      ar
     6    6    7       1
     7    7    8       1
     8    8    9       1
     9    8   10       1
    10   10   11       1
    11   11   12       1
    12   11   13       1
    13   12   17       1
    14   13   14       1
    15   13   15       1
    16   15   16       1
    17   15   17       1
    18   17   18       1
    19   18   19       1
    20   18   27       1
    21   19   20       2
    22   20   21       1
    23   21   22      ar
    24   21   27      ar
    25   22   23       1
    26   22   24      ar
    27   24   25      ar
    28   25   26      ar
    29   26   27      ar
    30    1   28       1
    31    1   29       1
    32    2   30       1
    33    1   50       1
    34    6   31       1
    35    6   32       1
    36    7   33       1
    37    7   34       1
    38    9   35       1
    39    9   36       1
    40    9   37       1
    41   10   38       1
    42   10   39       1
    43   11   40       1
    44   13   41       1
    45   14   42       1
    46   15   43       1
    47   16   44       1
    48   17   45       1
    49   19   46       1
    50   23   47       1
    51   23   48       1
    52   25   49       1
@<TRIPOS>SUBSTRUCTURE
     1 SAM250      1 GROUP             4 A     SAM     0 **** SAM A 250
