@<TRIPOS>MOLECULE
./coach420/2cwh/ligand.pdb
 102 107 0 0 0
SMALL
GASTEIGER

@<TRIPOS>ATOM
      1  PA        30.2620   51.2750   37.2300 P.3   2510  NDP2510     0.2189
      2  O1A       31.5740   51.1070   37.8970 O.3   2510  NDP2510    -0.4371
      3  O2A       29.0510   50.5540   37.7090 O.2   2510  NDP2510    -0.5170
      4  O5B       29.8410   50.8730   35.5740 O.3   2510  NDP2510    -0.3112
      5  C5B       30.7320   51.3290   34.6670 C.3   2510  NDP2510     0.1813
      6  C4B       29.9470   50.8180   33.6520 C.3   2510  NDP2510     0.1800
      7  O4B       30.5790   49.4770   33.7230 O.3   2510  NDP2510    -0.3307
      8  C3B       28.7020   50.7170   32.8650 C.3   2510  NDP2510     0.2134
      9  O3B       28.9030   51.0140   31.5140 O.3   2510  NDP2510    -0.2176
     10  C2B       28.3540   49.2980   33.2700 C.3   2510  NDP2510     0.2081
     11  O2B       27.2220   48.7150   32.7400 O.3   2510  NDP2510    -0.2654
     12  C1B       29.7080   48.5370   33.0770 C.3   2510  NDP2510     0.2382
     13  N9A       29.8450   47.3260   33.9240 N.ar  2510  NDP2510    -0.2694
     14  C8A       29.7510   47.2980   35.3280 C.ar  2510  NDP2510     0.1816
     15  N7A       29.9110   46.1040   35.8550 N.ar  2510  NDP2510    -0.2193
     16  C5A       30.1170   45.3060   34.7760 C.ar  2510  NDP2510     0.1518
     17  C6A       30.3580   43.8940   34.6540 C.ar  2510  NDP2510     0.1919
     18  N6A       30.4190   43.1060   35.7350 N.pl3 2510  NDP2510    -0.1054
     19  N1A       30.5290   43.3700   33.3790 N.ar  2510  NDP2510    -0.2040
     20  C2A       30.4710   44.1760   32.2650 C.ar  2510  NDP2510     0.2016
     21  N3A       30.2480   45.5360   32.2730 N.ar  2510  NDP2510    -0.2048
     22  C4A       30.0790   46.0350   33.5590 C.ar  2510  NDP2510     0.1692
     23  O3        29.8220   52.8030   37.1920 O.3   2510  NDP2510    -0.2703
     24  PN        30.6390   54.0830   37.7980 P.3   2510  NDP2510     0.2189
     25  O1N       31.7960   54.2960   37.1170 O.2   2510  NDP2510    -0.5170
     26  O2N       30.5010   53.9170   39.1270 O.3   2510  NDP2510    -0.4371
     27  O5D       29.3290   55.1020   37.2520 O.3   2510  NDP2510    -0.3112
     28  C5D       27.9240   55.2050   37.6770 C.3   2510  NDP2510     0.1813
     29  C4D       27.8250   56.5490   37.2930 C.3   2510  NDP2510     0.1799
     30  O4D       27.7030   57.8190   37.9260 O.3   2510  NDP2510    -0.3327
     31  C3D       27.5950   56.8310   35.7710 C.3   2510  NDP2510     0.2158
     32  O3D       26.2430   56.7300   35.3330 O.3   2510  NDP2510    -0.2175
     33  C2D       28.1950   58.1800   35.6390 C.3   2510  NDP2510     0.2309
     34  O2D       27.8470   58.8740   34.4880 O.3   2510  NDP2510    -0.2158
     35  C1D       27.8160   58.8350   36.9570 C.3   2510  NDP2510     0.2263
     36  N1N       28.8250   59.8280   37.2820 N.pl3 2510  NDP2510    -0.2787
     37  C2N       28.5030   61.0980   36.8110 C.3   2510  NDP2510     0.1244
     38  C3N       29.3620   62.1630   37.0080 C.2   2510  NDP2510     0.0544
     39  C7N       29.0150   63.5360   36.4870 C.2   2510  NDP2510     0.2818
     40  O7N       27.8370   63.8030   36.1350 O.2   2510  NDP2510    -0.2670
     41  N7N       30.0020   64.4190   36.4150 N.am  2510  NDP2510    -0.0839
     42  C4N       30.6110   61.9270   37.7190 C.2   2510  NDP2510     0.0033
     43  C5N       30.9370   60.6140   38.2040 C.2   2510  NDP2510     0.0157
     44  C6N       30.0380   59.5550   37.9830 C.2   2510  NDP2510     0.0633
     45  P2B       25.9880   49.0590   33.2570 P.3   2510  NDP2510     0.5327
     46  O1X       25.5000   50.5580   33.1760 O.3   2510  NDP2510    -0.1145
     47  O2X       24.8670   48.1410   32.5240 O.2   2510  NDP2510    -0.2224
     48  O3X       25.7820   48.6600   34.7810 O.3   2510  NDP2510    -0.1145
     49  O1A       51.4990   51.2740   31.1780 O.3   1510  NDP1510     0.0000
     50  O2A       53.7420   52.3880   30.5560 O.3   1510  NDP1510     0.0000
     51  O5B       52.0880   53.9130   30.0780 O.3   1510  NDP1510    -0.2176
     52  C5B       50.8110   54.2730   29.8230 C.3   1510  NDP1510     0.2142
     53  C4B       51.2090   55.5910   29.7060 C.3   1510  NDP1510     0.1830
     54  O4B       51.0890   55.8430   31.1620 O.3   1510  NDP1510    -0.3306
     55  C3B       51.9800   56.6900   29.0990 C.3   1510  NDP1510     0.2135
     56  O3B       51.1690   57.7020   28.5970 O.3   1510  NDP1510    -0.2176
     57  C2B       52.8650   56.9750   30.2970 C.3   1510  NDP1510     0.2081
     58  O2B       53.7850   57.9940   30.2130 O.3   1510  NDP1510    -0.2654
     59  C1B       51.8460   57.0240   31.4840 C.3   1510  NDP1510     0.2382
     60  N9A       52.4220   56.6670   32.8040 N.ar  1510  NDP1510    -0.2694
     61  C8A       53.0950   55.4670   33.1030 C.ar  1510  NDP1510     0.1816
     62  N7A       53.5080   55.3770   34.3460 N.ar  1510  NDP1510    -0.2193
     63  C5A       53.1060   56.5480   34.9000 C.ar  1510  NDP1510     0.1518
     64  C6A       53.2390   57.0800   36.2280 C.ar  1510  NDP1510     0.1919
     65  N6A       53.8570   56.3840   37.1960 N.pl3 1510  NDP1510    -0.1054
     66  N1A       52.7070   58.3380   36.4820 N.ar  1510  NDP1510    -0.2040
     67  C2A       52.0690   59.0550   35.4900 C.ar  1510  NDP1510     0.2016
     68  N3A       51.8860   58.6360   34.1900 N.ar  1510  NDP1510    -0.2048
     69  C4A       52.4290   57.3740   33.9650 C.ar  1510  NDP1510     0.1692
     70  O3        52.2170   51.7100   28.7860 O.2   1510  NDP1510    -0.2224
     71  PN        51.4310   50.4040   28.1940 P.3   1510  NDP1510     0.5327
     72  O1N       50.0810   50.5320   28.3450 O.3   1510  NDP1510    -0.1145
     73  O2N       52.1980   49.3890   28.6260 O.3   1510  NDP1510    -0.1145
     74  O5D       51.9880   50.8450   26.5890 O.3   1510  NDP1510    -0.2675
     75  C5D       53.3240   50.8770   25.9680 C.3   1510  NDP1510     0.1859
     76  C4D       52.8070   50.7340   24.6630 C.3   1510  NDP1510     0.1801
     77  O4D       52.7840   49.7400   23.6350 O.3   1510  NDP1510    -0.3327
     78  C3D       52.2300   52.0290   23.9870 C.3   1510  NDP1510     0.2158
     79  O3D       53.1900   52.8780   23.3730 O.3   1510  NDP1510    -0.2175
     80  C2D       51.2380   51.4510   23.0540 C.3   1510  NDP1510     0.2309
     81  O2D       50.7980   52.3130   22.0470 O.3   1510  NDP1510    -0.2158
     82  C1D       51.9320   50.1770   22.5970 C.3   1510  NDP1510     0.2263
     83  N1N       50.9010   49.2220   22.2400 N.pl3 1510  NDP1510    -0.2787
     84  C2N       50.6090   49.2390   20.8800 C.3   1510  NDP1510     0.1244
     85  C3N       49.6280   48.4140   20.3590 C.2   1510  NDP1510     0.0544
     86  C7N       49.3020   48.4430   18.8880 C.2   1510  NDP1510     0.2818
     87  O7N       50.0860   48.9970   18.0760 O.2   1510  NDP1510    -0.2670
     88  N7N       48.1590   47.8760   18.5120 N.am  1510  NDP1510    -0.0839
     89  C4N       48.9130   47.5340   21.2640 C.2   1510  NDP1510     0.0033
     90  C5N       49.2210   47.5200   22.6640 C.2   1510  NDP1510     0.0157
     91  C6N       50.2240   48.3720   23.1600 C.2   1510  NDP1510     0.0633
     92  P2B       54.9080   57.7980   29.4310 P.3   1510  NDP1510     0.5327
     93  O1X       54.7380   57.5880   27.8740 O.2   1510  NDP1510    -0.2224
     94  O2X       55.8990   59.0650   29.6620 O.3   1510  NDP1510    -0.1145
     95  O3X       55.8260   56.5820   29.8890 O.3   1510  NDP1510    -0.1145
     96  O8        52.4430   45.1130   22.4750 O.2   1520  PYC1520    -0.2815
     97  C1        51.3150   44.8190   22.0460 C.2   1520  PYC1520     0.2531
     98  C2        51.0870   44.9340   20.6320 C.ar  1520  PYC1520     0.1235
     99  C3        50.1500   44.4000   19.7740 C.ar  1520  PYC1520     0.0241
    100  C4        50.4200   44.8650   18.5130 C.ar  1520  PYC1520     0.0223
    101  C5        51.5310   45.6940   18.5840 C.ar  1520  PYC1520     0.0990
    102  N6        51.9050   45.7150   19.8700 N.ar  1520  PYC1520    -0.2405
@<TRIPOS>BOND
     1     1     4    1
     2     1    23    1
     3     1     3    2
     4     1     2    1
     5     4     5    1
     6     5     6    1
     7     6     8    1
     8     6     7    1
     9     7    12    1
    10     8     9    1
    11     8    10    1
    12    10    11    1
    13    10    12    1
    14    11    45    1
    15    12    13    1
    16    13    22   ar
    17    13    14   ar
    18    14    15   ar
    19    15    16   ar
    20    16    22   ar
    21    16    17   ar
    22    17    19   ar
    23    17    18    1
    24    19    20   ar
    25    20    21   ar
    26    21    22   ar
    27    23    24    1
    28    24    25    2
    29    24    27    1
    30    24    26    1
    31    27    28    1
    32    28    29    1
    33    29    31    1
    34    29    30    1
    35    30    35    1
    36    31    32    1
    37    31    33    1
    38    33    34    1
    39    33    35    1
    40    35    36    1
    41    36    37    1
    42    36    44    1
    43    37    38    1
    44    38    39    1
    45    38    42    2
    46    39    40    2
    47    39    41   am
    48    42    43    1
    49    43    44    2
    50    45    47    2
    51    45    46    1
    52    45    48    1
    53    51    52    1
    54    52    53    1
    55    53    55    1
    56    53    54    1
    57    54    59    1
    58    55    56    1
    59    55    57    1
    60    57    58    1
    61    57    59    1
    62    58    92    1
    63    59    60    1
    64    60    61   ar
    65    60    69   ar
    66    61    62   ar
    67    62    63   ar
    68    63    69   ar
    69    63    64   ar
    70    64    66   ar
    71    64    65    1
    72    66    67   ar
    73    67    68   ar
    74    68    69   ar
    75    70    71    2
    76    71    74    1
    77    71    72    1
    78    71    73    1
    79    74    75    1
    80    75    76    1
    81    76    77    1
    82    76    78    1
    83    77    82    1
    84    78    80    1
    85    78    79    1
    86    80    81    1
    87    80    82    1
    88    82    83    1
    89    83    84    1
    90    83    91    1
    91    84    85    1
    92    85    86    1
    93    85    89    2
    94    86    87    2
    95    86    88   am
    96    89    90    1
    97    90    91    2
    98    92    93    2
    99    92    94    1
   100    92    95    1
   101    96    97    2
   102    97    98    1
   103    98    99   ar
   104    98   102   ar
   105    99   100   ar
   106   100   101   ar
   107   101   102   ar
