@<TRIPOS>MOLECULE
1sny_NAP_1_ligand
   73    77     1     0     0
SMALL
NO_CHARGES


@<TRIPOS>ATOM
     1 PA          19.7420    20.7990    46.9370 P.3          1 NAP400   0.0000
     2 O1A         19.1020    21.6510    47.8590 O.co2        1 NAP400   0.0000
     3 O2A         21.2060    20.4130    46.9640 O.co2        1 NAP400  -1.0000
     4 O5B         19.5010    21.3390    45.4510 O.3          1 NAP400   0.0000
     5 C5B         18.1930    21.8470    45.0790 C.3          1 NAP400   0.0000
     6 C4B         18.4990    22.4690    43.6800 C.3          1 NAP400   0.0000
     7 O4B         17.1980    23.0240    43.1730 O.3          1 NAP400   0.0000
     8 C3B         19.4410    23.7140    43.6960 C.3          1 NAP400   0.0000
     9 O3B         20.2130    23.6640    42.4860 O.3          1 NAP400   0.0000
    10 C2B         18.4680    24.8720    43.7650 C.3          1 NAP400   0.0000
    11 O2B         18.9590    26.1420    43.3580 O.3          1 NAP400   0.0000
    12 C1B         17.3170    24.3890    42.8540 C.3          1 NAP400   0.0000
    13 N9A         16.1290    25.1790    43.1330 N.pl3        1 NAP400   0.0000
    14 C8A         15.3370    25.3040    44.2570 C.2          1 NAP400   0.0000
    15 N7A         14.3280    26.1560    44.1160 N.2          1 NAP400   0.0000
    16 C5A         14.4780    26.6120    42.8150 C.ar         1 NAP400   0.0000
    17 C6A         13.7120    27.5400    42.0870 C.ar         1 NAP400   0.0000
    18 N6A         12.6180    28.2190    42.5170 N.pl3        1 NAP400   0.0000
    19 N1A         14.1160    27.8010    40.7640 N.ar         1 NAP400   0.0000
    20 C2A         15.2350    27.1610    40.2050 C.ar         1 NAP400   0.0000
    21 N3A         16.0090    26.2460    40.9040 N.ar         1 NAP400   0.0000
    22 C4A         15.5900    26.0050    42.2040 C.ar         1 NAP400   0.0000
    23 O3          18.9760    19.4180    46.9050 O.3          1 NAP400   0.0000
    24 PN          19.2160    18.0650    46.1340 P.3          1 NAP400   0.0000
    25 O1N         19.4810    16.9730    47.0850 O.co2        1 NAP400   0.0000
    26 O2N         20.2700    18.3400    45.1200 O.co2        1 NAP400  -1.0000
    27 O5D         17.7940    17.7990    45.4890 O.3          1 NAP400   0.0000
    28 C5D         17.6850    17.4420    44.0680 C.3          1 NAP400   0.0000
    29 C4D         16.3170    16.8240    43.8420 C.3          1 NAP400   0.0000
    30 O4D         16.2860    15.4870    44.4050 O.3          1 NAP400   0.0000
    31 C3D         15.1130    17.5700    44.5030 C.3          1 NAP400   0.0000
    32 O3D         13.9720    17.5920    43.6120 O.3          1 NAP400   0.0000
    33 C2D         14.8820    16.7670    45.7740 C.3          1 NAP400   0.0000
    34 O2D         13.5870    16.9220    46.3110 O.3          1 NAP400   0.0000
    35 C1D         15.1480    15.3810    45.3230 C.3          1 NAP400   0.0000
    36 N1N         15.6110    14.4100    46.3390 N.ar         1 NAP400   1.0000
    37 C2N         16.8210    14.5200    47.0970 C.ar         1 NAP400   0.0000
    38 C3N         17.1010    13.5000    48.0200 C.ar         1 NAP400   0.0000
    39 C7N         18.3850    13.5660    48.8580 C.2          1 NAP400   0.0000
    40 O7N         18.5690    12.6500    49.6380 O.2          1 NAP400   0.0000
    41 N7N         19.2270    14.5560    48.7310 N.am         1 NAP400   0.0000
    42 C4N         16.1930    12.3610    48.2050 C.ar         1 NAP400   0.0000
    43 C5N         15.0120    12.3090    47.4250 C.ar         1 NAP400   0.0000
    44 C6N         14.7040    13.3270    46.4860 C.ar         1 NAP400   0.0000
    45 P2B         19.6380    27.2180    44.3960 P.3          1 NAP400   0.0000
    46 O1X         21.0780    26.7400    44.6040 O.co2        1 NAP400   0.0000
    47 O2X         19.5310    28.4800    43.6060 O.co2        1 NAP400  -1.0000
    48 O3X         18.8370    27.1720    45.6890 O.co2        1 NAP400  -1.0000
    49 H5B1        17.8706    22.5385    45.7254 H            1 NAP400   0.0000
    50 H5B2        17.5187    21.1114    45.0139 H            1 NAP400   0.0000
    51 H4B         18.8500    21.7715    43.0552 H            1 NAP400   0.0000
    52 H3B         20.0363    23.7003    44.4994 H            1 NAP400   0.0000
    53 H5          20.8338    24.4473    42.4541 H            1 NAP400   0.0000
    54 H2B         18.1252    24.9466    44.7014 H            1 NAP400   0.0000
    55 H1B         17.5767    24.4926    41.8939 H            1 NAP400   0.0000
    56 H8A         15.5079    24.7979    45.1023 H            1 NAP400   0.0000
    57 H6A1        12.1530    28.8576    41.9039 H            1 NAP400   0.0000
    58 H6A2        12.2771    28.0805    43.4469 H            1 NAP400   0.0000
    59 H2A         15.4848    27.3747    39.2606 H            1 NAP400   0.0000
    60 H5D1        18.3984    16.7837    43.8280 H            1 NAP400   0.0000
    61 H5D2        17.7843    18.2616    43.5038 H            1 NAP400   0.0000
    62 H4D         16.1530    16.7607    42.8576 H            1 NAP400   0.0000
    63 H3D         15.3797    18.5052    44.7361 H            1 NAP400   0.0000
    64 H16         13.9869    16.7781    43.0311 H            1 NAP400   0.0000
    65 H2D         15.5601    17.0291    46.4606 H            1 NAP400   0.0000
    66 H18         13.4312    17.8845    46.5330 H            1 NAP400   0.0000
    67 H1D         14.3507    15.0184    44.8404 H            1 NAP400   0.0000
    68 H2N         17.4425    15.2936    46.9736 H            1 NAP400   0.0000
    69 H7N1        20.0580    14.5800    49.2867 H            1 NAP400   0.0000
    70 H7N2        19.0408    15.2901    48.0780 H            1 NAP400   0.0000
    71 H4N         16.4032    11.6400    48.8653 H            1 NAP400   0.0000
    72 H5N         14.3830    11.5399    47.5383 H            1 NAP400   0.0000
    73 H6N         13.8673    13.2830    45.9401 H            1 NAP400   0.0000
@<TRIPOS>BOND
     1    1    2      ar
     2    1    3      ar
     3    1    4       1
     4    1   23       1
     5    4    5       1
     6    5    6       1
     7    6    7       1
     8    6    8       1
     9    7   12       1
    10    8    9       1
    11    8   10       1
    12   10   11       1
    13   10   12       1
    14   11   45       1
    15   12   13       1
    16   13   14       1
    17   13   22       1
    18   14   15       2
    19   15   16       1
    20   16   17      ar
    21   16   22      ar
    22   17   18       1
    23   17   19      ar
    24   19   20      ar
    25   20   21      ar
    26   21   22      ar
    27   23   24       1
    28   24   25      ar
    29   24   26      ar
    30   24   27       1
    31   27   28       1
    32   28   29       1
    33   29   30       1
    34   29   31       1
    35   30   35       1
    36   31   32       1
    37   31   33       1
    38   33   34       1
    39   33   35       1
    40   35   36       1
    41   36   37      ar
    42   36   44      ar
    43   37   38      ar
    44   38   39       1
    45   38   42      ar
    46   39   40       2
    47   39   41      am
    48   42   43      ar
    49   43   44      ar
    50   45   46      ar
    51   45   47      ar
    52   45   48      ar
    53   43   72       1
    54    5   49       1
    55    5   50       1
    56    6   51       1
    57    8   52       1
    58    9   53       1
    59   10   54       1
    60   12   55       1
    61   14   56       1
    62   18   57       1
    63   18   58       1
    64   20   59       1
    65   44   73       1
    66   28   60       1
    67   28   61       1
    68   29   62       1
    69   31   63       1
    70   32   64       1
    71   33   65       1
    72   34   66       1
    73   35   67       1
    74   37   68       1
    75   41   69       1
    76   41   70       1
    77   42   71       1
@<TRIPOS>SUBSTRUCTURE
     1 NAP400      1 GROUP             4 A     NAP     0 **** NAP A 400
