@<TRIPOS>MOLECULE
4rz3_ADP_2_ligand
   39    41     1     0     0
SMALL
NO_CHARGES


@<TRIPOS>ATOM
     1 PB          13.2090   -15.0660    19.2600 P.3          1 ADP301   0.0000
     2 O1B         12.5670   -14.4780    20.4970 O.co2        1 ADP301   0.0000
     3 O2B         14.6750   -14.7300    19.0510 O.co2        1 ADP301  -1.0000
     4 O3B         12.4010   -14.9090    17.9890 O.co2        1 ADP301  -1.0000
     5 PA          12.3710   -17.6610    20.2390 P.3          1 ADP301   0.0000
     6 O1A         12.7730   -17.7840    21.6950 O.co2        1 ADP301   0.0000
     7 O2A         10.9560   -17.3820    19.7890 O.co2        1 ADP301  -1.0000
     8 O3A         13.3760   -16.6510    19.5000 O.3          1 ADP301   0.0000
     9 O5'         12.8480   -18.9810    19.5090 O.3          1 ADP301   0.0000
    10 C5'         12.4370   -19.2170    18.1730 C.3          1 ADP301   0.0000
    11 C4'         12.7080   -20.6800    17.9370 C.3          1 ADP301   0.0000
    12 O4'         14.1110   -20.9230    17.9960 O.3          1 ADP301   0.0000
    13 C3'         12.1420   -21.5780    19.0330 C.3          1 ADP301   0.0000
    14 O3'         10.7270   -21.7650    18.8870 O.3          1 ADP301   0.0000
    15 C2'         12.9910   -22.8150    18.8620 C.3          1 ADP301   0.0000
    16 O2'         12.5430   -23.5940    17.7490 O.3          1 ADP301   0.0000
    17 C1'         14.3310   -22.2810    18.4180 C.3          1 ADP301   0.0000
    18 N9          15.4220   -22.3560    19.4230 N.pl3        1 ADP301   0.0000
    19 C8          15.8790   -21.3680    20.2190 C.2          1 ADP301   0.0000
    20 N7          16.9300   -21.8020    20.9650 N.2          1 ADP301   0.0000
    21 C5          17.1520   -23.0830    20.6120 C.ar         1 ADP301   0.0000
    22 C6          18.1070   -24.1230    20.9890 C.ar         1 ADP301   0.0000
    23 N6          19.0220   -23.8250    21.9200 N.pl3        1 ADP301   0.0000
    24 N1          18.0280   -25.3380    20.3980 N.ar         1 ADP301   0.0000
    25 C2          17.0850   -25.5860    19.4650 C.ar         1 ADP301   0.0000
    26 N3          16.1800   -24.6730    19.0680 N.ar         1 ADP301   0.0000
    27 C4          16.1720   -23.4340    19.5970 C.ar         1 ADP301   0.0000
    28 H5'1        12.9657   -18.6542    17.5376 H            1 ADP301   0.0000
    29 H5'2        11.4632   -19.0175    18.0640 H            1 ADP301   0.0000
    30 H4'         12.3484   -20.9568    17.0459 H            1 ADP301   0.0000
    31 H3'         12.3307   -21.1687    19.9257 H            1 ADP301   0.0000
    32 H5          10.5365   -22.1900    18.0021 H            1 ADP301   0.0000
    33 H2'         13.0546   -23.3528    19.7027 H            1 ADP301   0.0000
    34 H7          11.5947   -23.8740    17.8982 H            1 ADP301   0.0000
    35 H1'         14.6180   -22.8063    17.6169 H            1 ADP301   0.0000
    36 H9          15.4979   -20.4442    20.2556 H            1 ADP301   0.0000
    37 H10         19.6909   -24.5129    22.2019 H            1 ADP301   0.0000
    38 H11         19.0365   -22.9146    22.3334 H            1 ADP301   0.0000
    39 H12         17.0575   -26.4943    19.0476 H            1 ADP301   0.0000
@<TRIPOS>BOND
     1    1    2      ar
     2    1    3      ar
     3    1    4      ar
     4    1    8       1
     5    5    6      ar
     6    5    7      ar
     7    5    8       1
     8    5    9       1
     9    9   10       1
    10   10   11       1
    11   11   12       1
    12   11   13       1
    13   12   17       1
    14   13   14       1
    15   13   15       1
    16   15   16       1
    17   15   17       1
    18   17   18       1
    19   18   19       1
    20   18   27       1
    21   19   20       2
    22   20   21       1
    23   21   22      ar
    24   21   27      ar
    25   22   23       1
    26   22   24      ar
    27   24   25      ar
    28   25   26      ar
    29   26   27      ar
    30   25   39       1
    31   23   38       1
    32   23   37       1
    33   10   28       1
    34   10   29       1
    35   11   30       1
    36   13   31       1
    37   14   32       1
    38   15   33       1
    39   16   34       1
    40   17   35       1
    41   19   36       1
@<TRIPOS>SUBSTRUCTURE
     1 ADP301      1 GROUP             4 B     ADP     0 **** ADP B 301
