@<TRIPOS>MOLECULE
2fiw_ACO_1_ligand
   85    87     1     0     0
SMALL
NO_CHARGES


@<TRIPOS>ATOM
     1 N1A         12.0520    35.9450    30.3890 N.ar         1 ACO200   0.0000
     2 C2A         12.9940    36.4450    29.5640 C.ar         1 ACO200   0.0000
     3 N3A         14.3010    36.4060    29.8860 N.ar         1 ACO200   0.0000
     4 C4A         14.7430    35.8550    31.0600 C.ar         1 ACO200   0.0000
     5 C5A         13.8360    35.3180    31.9590 C.ar         1 ACO200   0.0000
     6 C6A         12.3920    35.3770    31.5790 C.ar         1 ACO200   0.0000
     7 N6A         11.4330    34.8790    32.3990 N.pl3        1 ACO200   0.0000
     8 N7A         14.5360    34.8520    33.0180 N.2          1 ACO200   0.0000
     9 C8A         15.8480    35.0910    32.7760 C.2          1 ACO200   0.0000
    10 N9A         15.9640    35.7070    31.5910 N.pl3        1 ACO200   0.0000
    11 C1B         17.1970    36.1600    30.8920 C.3          1 ACO200   0.0000
    12 C2B         18.0590    37.1380    31.6680 C.3          1 ACO200   0.0000
    13 O2B         17.5760    38.4750    31.5240 O.3          1 ACO200   0.0000
    14 C3B         19.4100    36.9490    30.9980 C.3          1 ACO200   0.0000
    15 O3B         19.6160    37.9060    29.9570 O.3          1 ACO200   0.0000
    16 P3B         21.0970    38.3550    29.4750 P.3          1 ACO200   0.0000
    17 O7A         21.6640    37.2190    28.6310 O.co2        1 ACO200   0.0000
    18 O8A         21.8680    38.5590    30.7590 O.co2        1 ACO200  -1.0000
    19 O9A         20.8140    39.6240    28.7010 O.co2        1 ACO200  -1.0000
    20 C4B         19.3840    35.5320    30.4100 C.3          1 ACO200   0.0000
    21 O4B         18.0410    35.0590    30.5280 O.3          1 ACO200   0.0000
    22 C5B         20.3110    34.5660    31.1480 C.3          1 ACO200   0.0000
    23 O5B         20.0860    34.7230    32.5570 O.3          1 ACO200   0.0000
    24 P1A         19.8770    33.4820    33.5580 P.3          1 ACO200   0.0000
    25 O1A         18.5510    32.8100    33.2660 O.co2        1 ACO200   0.0000
    26 O2A         20.1740    34.0440    34.9300 O.co2        1 ACO200  -1.0000
    27 O3A         21.1080    32.5330    33.1150 O.3          1 ACO200   0.0000
    28 P2A         20.9510    31.0090    32.6820 P.3          1 ACO200   0.0000
    29 O4A         20.2820    30.9770    31.3350 O.co2        1 ACO200   0.0000
    30 O5A         20.3410    30.2690    33.8380 O.co2        1 ACO200  -1.0000
    31 O6A         22.4850    30.5130    32.5250 O.3          1 ACO200   0.0000
    32 CBP         24.6920    30.4520    31.3750 C.3          1 ACO200   0.0000
    33 CCP         23.5450    31.2960    31.9570 C.3          1 ACO200   0.0000
    34 CDP         25.6520    31.4020    30.6690 C.3          1 ACO200   0.0000
    35 CEP         25.4080    29.7110    32.4930 C.3          1 ACO200   0.0000
    36 CAP         24.1590    29.3840    30.3890 C.3          1 ACO200   0.0000
    37 OAP         23.6410    29.9800    29.1870 O.3          1 ACO200   0.0000
    38 C9P         25.0800    28.2190    30.0400 C.2          1 ACO200   0.0000
    39 O9P         25.0850    27.1220    30.7900 O.2          1 ACO200   0.0000
    40 N8P         25.8200    28.2860    29.0110 N.am         1 ACO200   0.0000
    41 C7P         26.7400    27.2900    28.4440 C.3          1 ACO200   0.0000
    42 C6P         27.9950    27.0440    29.2830 C.3          1 ACO200   0.0000
    43 C5P         28.7610    28.3270    29.3980 C.2          1 ACO200   0.0000
    44 O5P         28.9260    29.0530    28.4260 O.2          1 ACO200   0.0000
    45 N4P         29.2230    28.6190    30.6040 N.am         1 ACO200   0.0000
    46 C3P         29.9620    29.8150    30.9550 C.3          1 ACO200   0.0000
    47 C2P         31.4270    29.5490    30.6490 C.3          1 ACO200   0.0000
    48 S1P         32.2780    30.7850    31.5560 S.3          1 ACO200   0.0000
    49 C           32.9080    29.9830    32.8740 C.2          1 ACO200   0.0000
    50 O           32.4080    28.9320    33.2590 O.2          1 ACO200   0.0000
    51 CH3         33.9630    30.5030    33.4820 C.3          1 ACO200   0.0000
    52 H2A         12.7162    36.8535    28.6945 H            1 ACO200   0.0000
    53 H6A1        11.6881    34.4629    33.2718 H            1 ACO200   0.0000
    54 H6A2        10.4709    34.9280    32.1307 H            1 ACO200   0.0000
    55 H8A         16.6053    34.8477    33.3820 H            1 ACO200   0.0000
    56 H1B         16.9139    36.6138    30.0471 H            1 ACO200   0.0000
    57 H2B         18.1041    36.8806    32.6332 H            1 ACO200   0.0000
    58 H7          18.0125    38.9037    30.7331 H            1 ACO200   0.0000
    59 H3B         20.1402    37.0224    31.6773 H            1 ACO200   0.0000
    60 H4B         19.6408    35.5675    29.4442 H            1 ACO200   0.0000
    61 H5B1        21.2639    34.7779    30.9310 H            1 ACO200   0.0000
    62 H5B2        20.1080    33.6257    30.8748 H            1 ACO200   0.0000
    63 HCP1        23.9189    31.8872    32.6716 H            1 ACO200   0.0000
    64 HCP2        23.1638    31.8593    31.2239 H            1 ACO200   0.0000
    65 HDP1        26.4108    30.8802    30.2791 H            1 ACO200   0.0000
    66 HDP2        25.1678    31.8828    29.9380 H            1 ACO200   0.0000
    67 HDP3        26.0074    32.0663    31.3266 H            1 ACO200   0.0000
    68 HEP1        26.1518    29.1648    32.1079 H            1 ACO200   0.0000
    69 HEP2        25.7819    30.3712    33.1444 H            1 ACO200   0.0000
    70 HEP3        24.7611    29.1097    32.9620 H            1 ACO200   0.0000
    71 HAP         23.3693    28.9722    30.8438 H            1 ACO200   0.0000
    72 H21         23.7621    29.3472    28.4222 H            1 ACO200   0.0000
    73 H8P         25.7692    29.1493    28.5088 H            1 ACO200   0.0000
    74 H7P1        27.0251    27.6061    27.5391 H            1 ACO200   0.0000
    75 H7P2        26.2480    26.4240    28.3548 H            1 ACO200   0.0000
    76 H6P1        28.5645    26.3515    28.8401 H            1 ACO200   0.0000
    77 H6P2        27.7327    26.7268    30.1944 H            1 ACO200   0.0000
    78 H4P         29.0471    27.9586    31.3340 H            1 ACO200   0.0000
    79 H3P1        29.8467    30.0150    31.9280 H            1 ACO200   0.0000
    80 H3P2        29.6350    30.5901    30.4143 H            1 ACO200   0.0000
    81 H2P1        31.6079    29.6384    29.6696 H            1 ACO200   0.0000
    82 H2P2        31.6943    28.6354    30.9553 H            1 ACO200   0.0000
    83 HH31        34.2278    29.9181    34.2487 H            1 ACO200   0.0000
    84 HH32        34.7224    30.5681    32.8346 H            1 ACO200   0.0000
    85 HH33        33.7356    31.4156    33.8219 H            1 ACO200   0.0000
@<TRIPOS>BOND
     1    1    2      ar
     2    1    6      ar
     3    2    3      ar
     4    3    4      ar
     5    4    5      ar
     6    4   10       1
     7    5    6      ar
     8    5    8       1
     9    6    7       1
    10    8    9       2
    11    9   10       1
    12   10   11       1
    13   11   12       1
    14   11   21       1
    15   12   13       1
    16   12   14       1
    17   14   15       1
    18   14   20       1
    19   15   16       1
    20   16   17      ar
    21   16   18      ar
    22   16   19      ar
    23   20   21       1
    24   20   22       1
    25   22   23       1
    26   23   24       1
    27   24   25      ar
    28   24   26      ar
    29   24   27       1
    30   27   28       1
    31   28   29      ar
    32   28   30      ar
    33   28   31       1
    34   31   33       1
    35   32   33       1
    36   32   34       1
    37   32   35       1
    38   32   36       1
    39   36   37       1
    40   36   38       1
    41   38   39       2
    42   38   40      am
    43   40   41       1
    44   41   42       1
    45   42   43       1
    46   43   44       2
    47   43   45      am
    48   45   46       1
    49   46   47       1
    50   47   48       1
    51   48   49       1
    52   49   50       2
    53   49   51       1
    54    2   52       1
    55    7   53       1
    56    7   54       1
    57    9   55       1
    58   11   56       1
    59   12   57       1
    60   13   58       1
    61   14   59       1
    62   51   85       1
    63   51   84       1
    64   20   60       1
    65   22   61       1
    66   22   62       1
    67   51   83       1
    68   47   82       1
    69   33   63       1
    70   33   64       1
    71   34   65       1
    72   34   66       1
    73   34   67       1
    74   35   68       1
    75   35   69       1
    76   35   70       1
    77   36   71       1
    78   37   72       1
    79   40   73       1
    80   41   74       1
    81   41   75       1
    82   42   76       1
    83   42   77       1
    84   45   78       1
    85   46   79       1
    86   46   80       1
    87   47   81       1
@<TRIPOS>SUBSTRUCTURE
     1 ACO200      1 GROUP             4 A     ACO     0 **** ACO A 200
