@<TRIPOS>MOLECULE
2y1t_DUD_3_ligand
   35    36     1     0     0
SMALL
NO_CHARGES


@<TRIPOS>ATOM
     1 N1          -6.3630    36.7350   -43.7520 N.pl3        1 DUD143   0.0000
     2 C2          -6.1280    37.2330   -42.4500 C.2          1 DUD143   0.0000
     3 N3          -4.9600    37.7240   -42.1870 N.pl3        1 DUD143   0.0000
     4 C4          -3.9230    37.8370   -43.1070 C.2          1 DUD143   0.0000
     5 C5          -4.1560    37.4230   -44.4050 C.2          1 DUD143   0.0000
     6 C6          -5.4170    36.9040   -44.7180 C.2          1 DUD143   0.0000
     7 O2          -6.9660    37.1150   -41.4910 O.2          1 DUD143   0.0000
     8 O4          -2.8210    38.3770   -42.7570 O.2          1 DUD143   0.0000
     9 C1'         -7.7070    36.1430   -44.0630 C.3          1 DUD143   0.0000
    10 C2'         -8.3160    36.5170   -45.4240 C.3          1 DUD143   0.0000
    11 C3'         -8.0950    35.2500   -46.2180 C.3          1 DUD143   0.0000
    12 C4'         -8.0720    34.1120   -45.2130 C.3          1 DUD143   0.0000
    13 O4'         -7.5160    34.7130   -44.0440 O.3          1 DUD143   0.0000
    14 O3'         -9.0850    35.0850   -47.2270 O.3          1 DUD143   0.0000
    15 C5'         -7.2000    32.9560   -45.5930 C.3          1 DUD143   0.0000
    16 O5'         -7.8940    32.1210   -46.5190 O.3          1 DUD143   0.0000
    17 PA          -7.0860    31.5940   -47.8130 P.3          1 DUD143   0.0000
    18 O1A         -8.1940    31.2630   -48.8170 O.co2        1 DUD143   0.0000
    19 O2A         -5.7960    30.7880   -47.5970 O.co2        1 DUD143  -1.0000
    20 O3A         -6.2680    32.6380   -48.6610 O.3          1 DUD143   0.0000
    21 PB          -6.6680    33.7840   -49.6200 P.3          1 DUD143   0.0000
    22 O1B         -5.6660    34.8860   -49.3110 O.co2        1 DUD143   0.0000
    23 O2B         -8.0960    34.2310   -49.3280 O.co2        1 DUD143  -1.0000
    24 O3B         -6.4330    33.1090   -50.9590 O.co2        1 DUD143  -1.0000
    25 H1          -4.7908    38.0453   -41.2553 H            1 DUD143   0.0000
    26 H2          -3.4422    37.4926   -45.1019 H            1 DUD143   0.0000
    27 H3          -5.6268    36.6538   -45.6632 H            1 DUD143   0.0000
    28 H1'         -8.3490    36.3951   -43.3390 H            1 DUD143   0.0000
    29 H2'1        -7.8386    37.2931   -45.8359 H            1 DUD143   0.0000
    30 H2'2        -9.2895    36.7302   -45.3414 H            1 DUD143   0.0000
    31 H3'         -7.1987    35.3032   -46.6581 H            1 DUD143   0.0000
    32 H4'         -9.0027    33.7959   -45.0288 H            1 DUD143   0.0000
    33 H9          -8.6933    34.5856   -47.9998 H            1 DUD143   0.0000
    34 H5'1        -6.9709    32.4282   -44.7751 H            1 DUD143   0.0000
    35 H5'2        -6.3603    33.2967   -46.0159 H            1 DUD143   0.0000
@<TRIPOS>BOND
     1    1    2       1
     2    1    6       1
     3    1    9       1
     4    2    3       1
     5    2    7       2
     6    3    4       1
     7    4    5       1
     8    4    8       2
     9    5    6       2
    10    9   10       1
    11    9   13       1
    12   10   11       1
    13   11   12       1
    14   11   14       1
    15   12   13       1
    16   12   15       1
    17   15   16       1
    18   16   17       1
    19   17   18      ar
    20   17   19      ar
    21   17   20       1
    22   20   21       1
    23   21   22      ar
    24   21   23      ar
    25   21   24      ar
    26    3   25       1
    27    5   26       1
    28    6   27       1
    29    9   28       1
    30   10   29       1
    31   10   30       1
    32   11   31       1
    33   12   32       1
    34   14   33       1
    35   15   34       1
    36   15   35       1
@<TRIPOS>SUBSTRUCTURE
     1 DUD143      1 GROUP             4 D     DUD     0 **** DUD D 143
