@<TRIPOS>MOLECULE
5c4n_NAP_1_ligand
   73    77     1     0     0
SMALL
NO_CHARGES


@<TRIPOS>ATOM
     1 PA          10.6800    54.3780   -30.0610 P.3          1 NAP301   0.0000
     2 O1A          9.5100    53.6360   -29.4430 O.co2        1 NAP301   0.0000
     3 O2A         11.5160    53.6110   -30.9900 O.co2        1 NAP301  -1.0000
     4 O5B         10.1300    55.7540   -30.6980 O.3          1 NAP301   0.0000
     5 C5B          8.7630    56.0450   -30.8190 C.3          1 NAP301   0.0000
     6 C4B          8.7210    57.1060   -31.8870 C.3          1 NAP301   0.0000
     7 O4B          9.3700    58.3100   -31.4410 O.3          1 NAP301   0.0000
     8 C3B          9.3830    56.7440   -33.2020 C.3          1 NAP301   0.0000
     9 O3B          8.6200    55.8760   -34.0350 O.3          1 NAP301   0.0000
    10 C2B          9.5730    58.1450   -33.7550 C.3          1 NAP301   0.0000
    11 O2B          8.3410    58.7040   -34.2170 O.3          1 NAP301   0.0000
    12 C1B         10.0270    58.9460   -32.5470 C.3          1 NAP301   0.0000
    13 N9A         11.4570    58.8960   -32.3300 N.pl3        1 NAP301   0.0000
    14 C8A         12.1880    58.0620   -31.5160 C.2          1 NAP301   0.0000
    15 N7A         13.5190    58.3080   -31.5540 N.2          1 NAP301   0.0000
    16 C5A         13.5970    59.4090   -32.3590 C.ar         1 NAP301   0.0000
    17 C6A         14.7230    60.2340   -32.8000 C.ar         1 NAP301   0.0000
    18 N6A         15.9530    59.9700   -32.4330 N.pl3        1 NAP301   0.0000
    19 N1A         14.4290    61.2420   -33.6660 N.ar         1 NAP301   0.0000
    20 C2A         13.1730    61.4870   -34.0580 C.ar         1 NAP301   0.0000
    21 N3A         12.0810    60.7880   -33.6690 N.ar         1 NAP301   0.0000
    22 C4A         12.3110    59.7800   -32.8440 C.ar         1 NAP301   0.0000
    23 O3          11.7280    54.8650   -28.9710 O.3          1 NAP301   0.0000
    24 PN          11.5530    55.8420   -27.7130 P.3          1 NAP301   0.0000
    25 O1N         10.0710    56.0920   -27.4600 O.co2        1 NAP301   0.0000
    26 O2N         12.5810    56.9320   -27.7960 O.co2        1 NAP301  -1.0000
    27 O5D         12.1720    54.8380   -26.6270 O.3          1 NAP301   0.0000
    28 C5D         11.6970    53.5880   -26.1050 C.3          1 NAP301   0.0000
    29 C4D         12.5590    53.8210   -24.8810 C.3          1 NAP301   0.0000
    30 O4D         12.1140    53.4870   -23.5450 O.3          1 NAP301   0.0000
    31 C3D         14.0180    53.4980   -25.1530 C.3          1 NAP301   0.0000
    32 O3D         14.5790    54.3260   -26.1740 O.3          1 NAP301   0.0000
    33 C2D         14.5690    53.9480   -23.8140 C.3          1 NAP301   0.0000
    34 O2D         15.2650    55.2080   -23.8650 O.3          1 NAP301   0.0000
    35 C1D         13.3290    53.8240   -22.8660 C.3          1 NAP301   0.0000
    36 N1N         13.9610    52.6360   -22.5440 N.ar         1 NAP301   1.0000
    37 C2N         14.9570    52.7830   -21.7200 C.ar         1 NAP301   0.0000
    38 C3N         15.7580    51.7180   -21.4450 C.ar         1 NAP301   0.0000
    39 C7N         16.7870    51.9260   -20.4370 C.2          1 NAP301   0.0000
    40 O7N         17.9520    51.4850   -20.4940 O.2          1 NAP301   0.0000
    41 N7N         16.3470    52.6520   -19.4160 N.am         1 NAP301   0.0000
    42 C4N         15.5170    50.5350   -22.1060 C.ar         1 NAP301   0.0000
    43 C5N         14.4680    50.4780   -23.0380 C.ar         1 NAP301   0.0000
    44 C6N         13.6950    51.5700   -23.2660 C.ar         1 NAP301   0.0000
    45 P2B          8.0820    58.9350   -35.8000 P.3          1 NAP301   0.0000
    46 O1X          7.6300    57.5720   -36.3750 O.co2        1 NAP301   0.0000
    47 O2X          6.9720    59.9310   -35.8810 O.co2        1 NAP301  -1.0000
    48 O3X          9.3470    59.2980   -36.5400 O.co2        1 NAP301  -1.0000
    49 H5B1         8.3939    56.3914   -29.9566 H            1 NAP301   0.0000
    50 H5B2         8.2488    55.2347   -31.1001 H            1 NAP301   0.0000
    51 H4B          7.7621    57.3214   -32.0720 H            1 NAP301   0.0000
    52 H3B         10.2767    56.3328   -33.0227 H            1 NAP301   0.0000
    53 H5           8.4349    56.3287   -34.9073 H            1 NAP301   0.0000
    54 H2B         10.2661    58.1565   -34.4757 H            1 NAP301   0.0000
    55 H1B          9.7236    59.8953   -32.6288 H            1 NAP301   0.0000
    56 H8A         11.7773    57.3454   -30.9523 H            1 NAP301   0.0000
    57 H6A1        16.7043    60.5497   -32.7485 H            1 NAP301   0.0000
    58 H6A2        16.1403    59.1889   -31.8374 H            1 NAP301   0.0000
    59 H2A         13.0295    62.2487   -34.6899 H            1 NAP301   0.0000
    60 H5D1        11.9551    52.7882   -26.6469 H            1 NAP301   0.0000
    61 H5D2        10.7144    53.5629   -25.9207 H            1 NAP301   0.0000
    62 H4D         12.5805    54.8199   -24.8398 H            1 NAP301   0.0000
    63 H3D         14.1700    52.5243   -25.3225 H            1 NAP301   0.0000
    64 H16         13.8632    54.5882   -26.8212 H            1 NAP301   0.0000
    65 H2D         15.2316    53.2582   -23.5224 H            1 NAP301   0.0000
    66 H18         15.9797    55.2226   -23.1657 H            1 NAP301   0.0000
    67 H1D         13.2574    54.5028   -22.1352 H            1 NAP301   0.0000
    68 H2N         15.1322    53.6701   -21.2929 H            1 NAP301   0.0000
    69 H7N1        16.9588    52.8666   -18.6547 H            1 NAP301   0.0000
    70 H7N2        15.4038    52.9842   -19.4084 H            1 NAP301   0.0000
    71 H4N         16.0801    49.7286   -21.9254 H            1 NAP301   0.0000
    72 H5N         14.2898    49.6292   -23.5358 H            1 NAP301   0.0000
    73 H6N         12.9624    51.5641   -23.9467 H            1 NAP301   0.0000
@<TRIPOS>BOND
     1    1    2      ar
     2    1    3      ar
     3    1    4       1
     4    1   23       1
     5    4    5       1
     6    5    6       1
     7    6    7       1
     8    6    8       1
     9    7   12       1
    10    8    9       1
    11    8   10       1
    12   10   11       1
    13   10   12       1
    14   11   45       1
    15   12   13       1
    16   13   14       1
    17   13   22       1
    18   14   15       2
    19   15   16       1
    20   16   17      ar
    21   16   22      ar
    22   17   18       1
    23   17   19      ar
    24   19   20      ar
    25   20   21      ar
    26   21   22      ar
    27   23   24       1
    28   24   25      ar
    29   24   26      ar
    30   24   27       1
    31   27   28       1
    32   28   29       1
    33   29   30       1
    34   29   31       1
    35   30   35       1
    36   31   32       1
    37   31   33       1
    38   33   34       1
    39   33   35       1
    40   35   36       1
    41   36   37      ar
    42   36   44      ar
    43   37   38      ar
    44   38   39       1
    45   38   42      ar
    46   39   40       2
    47   39   41      am
    48   42   43      ar
    49   43   44      ar
    50   45   46      ar
    51   45   47      ar
    52   45   48      ar
    53   43   72       1
    54    5   49       1
    55    5   50       1
    56    6   51       1
    57    8   52       1
    58    9   53       1
    59   10   54       1
    60   12   55       1
    61   14   56       1
    62   18   57       1
    63   18   58       1
    64   20   59       1
    65   44   73       1
    66   28   60       1
    67   28   61       1
    68   29   62       1
    69   31   63       1
    70   32   64       1
    71   33   65       1
    72   34   66       1
    73   35   67       1
    74   37   68       1
    75   41   69       1
    76   41   70       1
    77   42   71       1
@<TRIPOS>SUBSTRUCTURE
     1 NAP301      1 GROUP             4 D     NAP     0 **** NAP D 301
