@<TRIPOS>MOLECULE
3jzd_NAD_3_ligand
   70    74     1     0     0
SMALL
NO_CHARGES


@<TRIPOS>ATOM
     1 PA          35.7720   141.5450    18.4970 P.3          1 NAD400   0.0000
     2 O1A         34.8400   141.5270    19.6800 O.co2        1 NAD400   0.0000
     3 O2A         37.0040   140.7890    18.8300 O.co2        1 NAD400  -1.0000
     4 O5B         36.1180   143.0420    17.9440 O.3          1 NAD400   0.0000
     5 C5B         37.1360   143.2790    16.9820 C.3          1 NAD400   0.0000
     6 C4B         37.8430   144.6300    17.1710 C.3          1 NAD400   0.0000
     7 O4B         37.0560   145.6920    16.6430 O.3          1 NAD400   0.0000
     8 C3B         38.0910   144.9660    18.6390 C.3          1 NAD400   0.0000
     9 O3B         39.3670   145.5690    18.7890 O.3          1 NAD400   0.0000
    10 C2B         36.9410   145.9090    18.9860 C.3          1 NAD400   0.0000
    11 O2B         37.2660   146.8070    20.0320 O.3          1 NAD400   0.0000
    12 C1B         36.6600   146.6100    17.6590 C.3          1 NAD400   0.0000
    13 N9A         35.2480   147.0460    17.4950 N.pl3        1 NAD400   0.0000
    14 C8A         34.1040   146.3120    17.7010 C.2          1 NAD400   0.0000
    15 N7A         33.0300   147.1000    17.4330 N.2          1 NAD400   0.0000
    16 C5A         33.4540   148.3210    17.0490 C.ar         1 NAD400   0.0000
    17 C6A         32.7810   149.4930    16.6700 C.ar         1 NAD400   0.0000
    18 N6A         31.4550   149.5460    16.5510 N.pl3        1 NAD400   0.0000
    19 N1A         33.5180   150.6140    16.3510 N.ar         1 NAD400   0.0000
    20 C2A         34.8970   150.5690    16.3980 C.ar         1 NAD400   0.0000
    21 N3A         35.5520   149.4120    16.7760 N.ar         1 NAD400   0.0000
    22 C4A         34.8450   148.2990    17.0920 C.ar         1 NAD400   0.0000
    23 O3          35.0900   140.8950    17.1570 O.3          1 NAD400   0.0000
    24 PN          33.7080   140.0170    17.0180 P.3          1 NAD400   0.0000
    25 O1N         33.9100   139.2840    15.7380 O.co2        1 NAD400   0.0000
    26 O2N         32.5210   140.8880    17.2240 O.co2        1 NAD400  -1.0000
    27 O5D         33.6930   138.9240    18.2080 O.3          1 NAD400   0.0000
    28 C5D         34.5720   137.8200    18.0810 C.3          1 NAD400   0.0000
    29 C4D         34.6050   136.9720    19.3330 C.3          1 NAD400   0.0000
    30 O4D         33.2710   136.6710    19.7220 O.3          1 NAD400   0.0000
    31 C3D         35.3050   135.6410    19.0470 C.3          1 NAD400   0.0000
    32 O3D         36.2120   135.3250    20.0880 O.3          1 NAD400   0.0000
    33 C2D         34.1230   134.6610    18.9160 C.3          1 NAD400   0.0000
    34 O2D         34.4000   133.3060    19.2070 O.3          1 NAD400   0.0000
    35 C1D         33.0680   135.2610    19.8450 C.3          1 NAD400   0.0000
    36 N1N         31.6720   134.8360    19.5180 N.ar         1 NAD400   1.0000
    37 C2N         30.9380   134.1380    20.4550 C.ar         1 NAD400   0.0000
    38 C3N         29.6140   133.7340    20.1720 C.ar         1 NAD400   0.0000
    39 C7N         28.8090   133.0120    21.2220 C.2          1 NAD400   0.0000
    40 O7N         27.4150   132.8860    21.1330 O.2          1 NAD400   0.0000
    41 N7N         29.4390   132.4930    22.2640 N.am         1 NAD400   0.0000
    42 C4N         29.0420   134.0400    18.9380 C.ar         1 NAD400   0.0000
    43 C5N         29.8030   134.7370    17.9860 C.ar         1 NAD400   0.0000
    44 C6N         31.1130   135.1340    18.2820 C.ar         1 NAD400   0.0000
    45 H5B1        36.7234   143.2606    16.0713 H            1 NAD400   0.0000
    46 H5B2        37.8174   142.5506    17.0540 H            1 NAD400   0.0000
    47 H4B         38.7200   144.6069    16.6911 H            1 NAD400   0.0000
    48 H3B         38.0353   144.1369    19.1954 H            1 NAD400   0.0000
    49 H5          39.5219   145.7860    19.7528 H            1 NAD400   0.0000
    50 H2B         36.1410   145.3703    19.2504 H            1 NAD400   0.0000
    51 H7          36.4379   147.0372    20.5431 H            1 NAD400   0.0000
    52 H1B         37.2472   147.4173    17.5994 H            1 NAD400   0.0000
    53 H8A         34.0683   145.3579    17.9983 H            1 NAD400   0.0000
    54 H6A1        31.0112   150.3997    16.2786 H            1 NAD400   0.0000
    55 H6A2        30.9036   148.7321    16.7341 H            1 NAD400   0.0000
    56 H2A         35.4273   151.3816    16.1562 H            1 NAD400   0.0000
    57 H5D1        35.4940   138.1613    17.8983 H            1 NAD400   0.0000
    58 H5D2        34.2687   137.2528    17.3153 H            1 NAD400   0.0000
    59 H4D         35.0771   137.4594    20.0676 H            1 NAD400   0.0000
    60 H3D         35.7953   135.6972    18.1772 H            1 NAD400   0.0000
    61 H17         36.6604   134.4542    19.8865 H            1 NAD400   0.0000
    62 H2D         33.7780   134.7135    17.9789 H            1 NAD400   0.0000
    63 H19         33.8000   132.7189    18.6635 H            1 NAD400   0.0000
    64 H1D         33.2749   134.9877    20.7844 H            1 NAD400   0.0000
    65 H2N         31.3460   133.9165    21.3407 H            1 NAD400   0.0000
    66 H7N1        28.9223   132.0103    22.9711 H            1 NAD400   0.0000
    67 H7N2        30.4317   132.5836    22.3441 H            1 NAD400   0.0000
    68 H4N         28.1021   133.7667    18.7336 H            1 NAD400   0.0000
    69 H5N         29.4079   134.9509    17.0926 H            1 NAD400   0.0000
    70 H6N         31.6479   135.6339    17.6009 H            1 NAD400   0.0000
@<TRIPOS>BOND
     1    1    2      ar
     2    1    3      ar
     3    1    4       1
     4    1   23       1
     5    4    5       1
     6    5    6       1
     7    6    7       1
     8    6    8       1
     9    7   12       1
    10    8    9       1
    11    8   10       1
    12   10   11       1
    13   10   12       1
    14   12   13       1
    15   13   14       1
    16   13   22       1
    17   14   15       2
    18   15   16       1
    19   16   17      ar
    20   16   22      ar
    21   17   18       1
    22   17   19      ar
    23   19   20      ar
    24   20   21      ar
    25   21   22      ar
    26   23   24       1
    27   24   25      ar
    28   24   26      ar
    29   24   27       1
    30   27   28       1
    31   28   29       1
    32   29   30       1
    33   29   31       1
    34   30   35       1
    35   31   32       1
    36   31   33       1
    37   33   34       1
    38   33   35       1
    39   35   36       1
    40   36   37      ar
    41   36   44      ar
    42   37   38      ar
    43   38   39       1
    44   38   42      ar
    45   39   40       2
    46   39   41      am
    47   42   43      ar
    48   43   44      ar
    49   44   70       1
    50    5   45       1
    51    5   46       1
    52    6   47       1
    53    8   48       1
    54    9   49       1
    55   10   50       1
    56   11   51       1
    57   12   52       1
    58   14   53       1
    59   18   54       1
    60   18   55       1
    61   20   56       1
    62   43   69       1
    63   28   57       1
    64   28   58       1
    65   29   59       1
    66   31   60       1
    67   32   61       1
    68   33   62       1
    69   34   63       1
    70   35   64       1
    71   37   65       1
    72   41   66       1
    73   41   67       1
    74   42   68       1
@<TRIPOS>SUBSTRUCTURE
     1 NAD400      1 GROUP             4 C     NAD     0 **** NAD C 400
