@<TRIPOS>MOLECULE
2pum_CAQ_1_ligand
   14    14     1     0     0
SMALL
NO_CHARGES


@<TRIPOS>ATOM
     1 C1          -5.0520     4.7650    36.8340 C.ar         1 CAQ619   0.0000
     2 C2          -4.0250     3.9370    36.4250 C.ar         1 CAQ619   0.0000
     3 C3          -4.0230     2.5680    36.7710 C.ar         1 CAQ619   0.0000
     4 O3          -2.9570     1.8670    36.3060 O.3          1 CAQ619   0.0000
     5 C4          -5.1250     1.9710    37.5880 C.ar         1 CAQ619   0.0000
     6 O4          -5.1380     0.6600    37.9290 O.3          1 CAQ619   0.0000
     7 C5          -6.1100     2.8510    37.9590 C.ar         1 CAQ619   0.0000
     8 C6          -6.0580     4.1950    37.5860 C.ar         1 CAQ619   0.0000
     9 H1          -5.0656     5.7360    36.5952 H            1 CAQ619   0.0000
    10 H2          -3.2755     4.3107    35.8785 H            1 CAQ619   0.0000
    11 H3          -2.8757     0.8903    36.5047 H            1 CAQ619   0.0000
    12 H4          -5.8902     0.2932    38.4763 H            1 CAQ619   0.0000
    13 H5          -6.8797     2.5234    38.5070 H            1 CAQ619   0.0000
    14 H6          -6.8050     4.7883    37.8860 H            1 CAQ619   0.0000
@<TRIPOS>BOND
     1    1    2      ar
     2    1    8      ar
     3    2    3      ar
     4    3    4       1
     5    3    5      ar
     6    5    6       1
     7    5    7      ar
     8    7    8      ar
     9    1    9       1
    10    2   10       1
    11    4   11       1
    12    6   12       1
    13    7   13       1
    14    8   14       1
@<TRIPOS>SUBSTRUCTURE
     1 CAQ619      1 GROUP             4 A     CAQ     0 **** CAQ A 619
