@<TRIPOS>MOLECULE
5fuw_THM_1_ligand
   31    32     1     0     0
SMALL
NO_CHARGES


@<TRIPOS>ATOM
     1 O5'         -2.9700   -51.9150   -15.1480 O.3          1 THM1386   0.0000
     2 C5'         -2.9580   -51.2380   -16.3960 C.3          1 THM1386   0.0000
     3 C4'         -3.6570   -52.0530   -17.4760 C.3          1 THM1386   0.0000
     4 O4'         -4.1700   -51.2200   -18.5560 O.3          1 THM1386   0.0000
     5 C3'         -2.6920   -53.0530   -18.0810 C.3          1 THM1386   0.0000
     6 O3'         -3.4910   -54.1890   -18.5170 O.3          1 THM1386   0.0000
     7 C2'         -2.1330   -52.3330   -19.2670 C.3          1 THM1386   0.0000
     8 C1'         -3.3920   -51.5670   -19.6610 C.3          1 THM1386   0.0000
     9 N1          -3.2250   -50.4220   -20.5250 N.pl3        1 THM1386   0.0000
    10 C2          -3.9880   -50.3190   -21.7320 C.2          1 THM1386   0.0000
    11 O2          -4.8430   -51.1430   -22.0470 O.2          1 THM1386   0.0000
    12 N3          -3.9130   -49.2350   -22.5000 N.pl3        1 THM1386   0.0000
    13 C4          -3.0870   -48.2270   -22.2100 C.2          1 THM1386   0.0000
    14 O4          -3.0000   -47.2970   -23.0060 O.2          1 THM1386   0.0000
    15 C5          -2.2360   -48.3210   -20.9940 C.2          1 THM1386   0.0000
    16 C5M         -1.2400   -47.2610   -20.5720 C.3          1 THM1386   0.0000
    17 C6          -2.3850   -49.4540   -20.1890 C.2          1 THM1386   0.0000
    18 H5'         -3.9156   -52.0738   -14.8640 H            1 THM1386   0.0000
    19 H5'1        -2.0098   -51.0788   -16.6708 H            1 THM1386   0.0000
    20 H5'2        -3.4275   -50.3609   -16.2950 H            1 THM1386   0.0000
    21 H4'         -4.4195   -52.5503   -17.0621 H            1 THM1386   0.0000
    22 H3'         -1.9777   -53.3228   -17.4352 H            1 THM1386   0.0000
    23 H6          -3.9670   -54.5831   -17.7308 H            1 THM1386   0.0000
    24 H2'1        -1.8315   -52.9612   -19.9843 H            1 THM1386   0.0000
    25 H2'2        -1.3800   -51.7231   -19.0199 H            1 THM1386   0.0000
    26 H1'         -3.9457   -52.2157   -20.1831 H            1 THM1386   0.0000
    27 H10         -4.4897   -49.1738   -23.3147 H            1 THM1386   0.0000
    28 H5M1        -0.7887   -47.5455   -19.7262 H            1 THM1386   0.0000
    29 H5M2        -0.5555   -47.1416   -21.2912 H            1 THM1386   0.0000
    30 H5M3        -1.7182   -46.3960   -20.4199 H            1 THM1386   0.0000
    31 H14         -1.8502   -49.5351   -19.3479 H            1 THM1386   0.0000
@<TRIPOS>BOND
     1    1    2       1
     2    2    3       1
     3    3    4       1
     4    3    5       1
     5    4    8       1
     6    5    6       1
     7    5    7       1
     8    7    8       1
     9    8    9       1
    10    9   10       1
    11    9   17       1
    12   10   11       2
    13   10   12       1
    14   12   13       1
    15   13   14       2
    16   13   15       1
    17   15   16       1
    18   15   17       2
    19    1   18       1
    20    2   19       1
    21    2   20       1
    22    3   21       1
    23    5   22       1
    24    6   23       1
    25    7   24       1
    26    7   25       1
    27    8   26       1
    28   12   27       1
    29   16   28       1
    30   16   29       1
    31   16   30       1
    32   17   31       1
@<TRIPOS>SUBSTRUCTURE
     1 THM1386     1 GROUP             4 B     THM     0 **** THM B1386
