@<TRIPOS>MOLECULE
1v0p_PVB_1_ligand
   54    56     1     0     0
SMALL
NO_CHARGES


@<TRIPOS>ATOM
     1 N1          25.2760    -1.1690    35.1390 N.ar         1 PVB1287   0.0000
     2 C9          22.6470     1.7330    38.7140 C.3          1 PVB1287   0.0000
     3 N9          23.4030     0.4990    38.3800 N.pl3        1 PVB1287   0.0000
     4 C4          23.9850     0.0940    37.2170 C.ar         1 PVB1287   0.0000
     5 N3          23.9440     0.6800    35.8860 N.ar         1 PVB1287   0.0000
     6 C2          24.6310     0.0420    34.8920 C.ar         1 PVB1287   0.0000
     7 C6          25.3300    -1.7820    36.3630 C.ar         1 PVB1287   0.0000
     8 C5          24.7030    -1.1680    37.4670 C.ar         1 PVB1287   0.0000
     9 N7          24.5060    -1.4480    38.7840 N.2          1 PVB1287   0.0000
    10 C8          23.7470    -0.4480    39.3040 C.2          1 PVB1287   0.0000
    11 N6          25.9890    -2.9740    36.5700 N.pl3        1 PVB1287   0.0000
    12 C1A         26.8160    -3.5670    35.6610 C.ar         1 PVB1287   0.0000
    13 C2A         28.1070    -3.9710    36.0580 C.ar         1 PVB1287   0.0000
    14 C3A         28.9820    -4.5320    35.1390 C.ar         1 PVB1287   0.0000
    15 C4A         28.5780    -4.6840    33.7990 C.ar         1 PVB1287   0.0000
    16 C5A         27.2240    -4.2230    33.3810 C.ar         1 PVB1287   0.0000
    17 CL1         26.7410    -4.3360    31.9420 Cl           1 PVB1287   0.0000
    18 C6A         26.3940    -3.6880    34.3530 C.ar         1 PVB1287   0.0000
    19 CX          29.5100    -5.2780    32.7970 C.2          1 PVB1287   0.0000
    20 OX1         30.1350    -6.3150    33.0750 O.co2        1 PVB1287   0.0000
    21 OX2         29.6670    -4.7350    31.6930 O.co2        1 PVB1287  -1.0000
    22 N2          24.6340     0.5440    33.6180 N.pl3        1 PVB1287   0.0000
    23 C12         25.3470    -0.2440    32.6130 C.3          1 PVB1287   0.0000
    24 C13         26.2920     0.5610    31.6970 C.3          1 PVB1287   0.0000
    25 C16         26.4770     2.0350    32.1370 C.3          1 PVB1287   0.0000
    26 C14         26.0990     0.3400    30.2020 C.3          1 PVB1287   0.0000
    27 C15         24.5370    -1.3740    31.9510 C.3          1 PVB1287   0.0000
    28 O1          23.2040    -0.9450    31.8650 O.3          1 PVB1287   0.0000
    29 C11         23.4690     2.8820    38.1590 C.3          1 PVB1287   0.0000
    30 C10         21.2420     1.8350    38.1350 C.3          1 PVB1287   0.0000
    31 H1          22.5951     1.8222    39.7087 H            1 PVB1287   0.0000
    32 H2          23.4687    -0.4088    40.2637 H            1 PVB1287   0.0000
    33 H3          25.8519    -3.4361    37.4462 H            1 PVB1287   0.0000
    34 H2A         28.3940    -3.8524    37.0085 H            1 PVB1287   0.0000
    35 H3A         29.8934    -4.8264    35.4265 H            1 PVB1287   0.0000
    36 H6A         25.4746    -3.3848    34.1025 H            1 PVB1287   0.0000
    37 H7          24.1743     1.4016    33.3876 H            1 PVB1287   0.0000
    38 H8          25.9945    -0.7577    33.1759 H            1 PVB1287   0.0000
    39 H9          27.1876     0.1536    31.8758 H            1 PVB1287   0.0000
    40 H10         27.0979     2.4966    31.5034 H            1 PVB1287   0.0000
    41 H11         25.5907     2.4981    32.1319 H            1 PVB1287   0.0000
    42 H12         26.8618     2.0617    33.0596 H            1 PVB1287   0.0000
    43 H13         26.7530     0.9014    29.6949 H            1 PVB1287   0.0000
    44 H14         26.2494    -0.6246    29.9855 H            1 PVB1287   0.0000
    45 H15         25.1679     0.5982    29.9443 H            1 PVB1287   0.0000
    46 H16         24.5931    -2.2041    32.5058 H            1 PVB1287   0.0000
    47 H17         24.8953    -1.5597    31.0361 H            1 PVB1287   0.0000
    48 H18         22.6506    -1.6600    31.4377 H            1 PVB1287   0.0000
    49 H19         23.0072     3.7472    38.3545 H            1 PVB1287   0.0000
    50 H20         24.3728     2.8825    38.5870 H            1 PVB1287   0.0000
    51 H21         23.5686     2.7733    37.1699 H            1 PVB1287   0.0000
    52 H22         20.8260     2.6986    38.4198 H            1 PVB1287   0.0000
    53 H23         21.2896     1.8012    37.1367 H            1 PVB1287   0.0000
    54 H24         20.6879     1.0722    38.4683 H            1 PVB1287   0.0000
@<TRIPOS>BOND
     1    1    6      ar
     2    1    7      ar
     3    2    3       1
     4    2   29       1
     5    2   30       1
     6    3    4       1
     7    3   10       1
     8    4    5      ar
     9    4    8      ar
    10    5    6      ar
    11    6   22       1
    12    7    8      ar
    13    7   11       1
    14    8    9       1
    15    9   10       2
    16   11   12       1
    17   12   13      ar
    18   12   18      ar
    19   13   14      ar
    20   14   15      ar
    21   15   16      ar
    22   15   19       1
    23   16   17       1
    24   16   18      ar
    25   19   20      ar
    26   19   21      ar
    27   22   23       1
    28   23   24       1
    29   23   27       1
    30   24   25       1
    31   24   26       1
    32   27   28       1
    33    2   31       1
    34   10   32       1
    35   11   33       1
    36   13   34       1
    37   14   35       1
    38   18   36       1
    39   30   54       1
    40   22   37       1
    41   23   38       1
    42   24   39       1
    43   25   40       1
    44   25   41       1
    45   25   42       1
    46   26   43       1
    47   26   44       1
    48   26   45       1
    49   27   46       1
    50   27   47       1
    51   28   48       1
    52   29   49       1
    53   29   50       1
    54   29   51       1
    55   30   52       1
    56   30   53       1
@<TRIPOS>SUBSTRUCTURE
     1 PVB1287     1 GROUP             4 A     PVB     0 **** PVB A1287
