@<TRIPOS>MOLECULE
1be4_PCG_1_ligand
   35    38     1     0     0
SMALL
NO_CHARGES


@<TRIPOS>ATOM
     1 PA          42.6680    55.6810    18.5960 P.3          1 PCG160   0.0000
     2 O1A         43.4480    55.4170    19.8910 O.2          1 PCG160   0.0000
     3 O2A         41.5080    56.5940    18.9970 O.3          1 PCG160   0.0000
     4 O5'         42.1800    54.3460    18.1590 O.3          1 PCG160   0.0000
     5 C5'         43.0660    53.2230    17.9740 C.3          1 PCG160   0.0000
     6 C4'         44.4100    53.7830    17.6120 C.3          1 PCG160   0.0000
     7 O4'         45.3890    52.8670    17.0220 O.3          1 PCG160   0.0000
     8 C3'         44.1710    54.8980    16.6200 C.3          1 PCG160   0.0000
     9 O3'         43.3090    55.9600    17.2560 O.3          1 PCG160   0.0000
    10 C2'         45.6970    55.0940    16.4150 C.3          1 PCG160   0.0000
    11 O2'         46.5050    55.3730    17.5460 O.3          1 PCG160   0.0000
    12 C1'         46.1310    53.6700    16.1120 C.3          1 PCG160   0.0000
    13 N9          45.7790    53.3120    14.7540 N.pl3        1 PCG160   0.0000
    14 C8          44.6370    53.2580    13.9600 C.2          1 PCG160   0.0000
    15 N7          44.9400    52.8620    12.7300 N.2          1 PCG160   0.0000
    16 C5          46.3580    52.6050    12.7020 C.2          1 PCG160   0.0000
    17 C6          47.2890    52.2790    11.6370 C.2          1 PCG160   0.0000
    18 O6          47.0550    51.9410    10.4420 O.2          1 PCG160   0.0000
    19 N1          48.6350    52.3500    12.0710 N.pl3        1 PCG160   0.0000
    20 C2          49.0880    52.7030    13.3490 C.2          1 PCG160   0.0000
    21 N2          50.4270    52.6730    13.5550 N.pl3        1 PCG160   0.0000
    22 N3          48.2620    53.0320    14.3640 N.2          1 PCG160   0.0000
    23 C4          46.9060    52.9820    13.9720 C.2          1 PCG160   0.0000
    24 H5'1        42.7284    52.6363    17.2380 H            1 PCG160   0.0000
    25 H5'2        43.1307    52.6931    18.8196 H            1 PCG160   0.0000
    26 H4'         44.8134    54.1809    18.4360 H            1 PCG160   0.0000
    27 H3'         43.7436    54.5462    15.7872 H            1 PCG160   0.0000
    28 H2'         45.8941    55.7131    15.6548 H            1 PCG160   0.0000
    29 H6          47.2873    55.9301    17.2675 H            1 PCG160   0.0000
    30 H1'         47.1134    53.5600    16.2633 H            1 PCG160   0.0000
    31 H8          43.7151    53.4862    14.2732 H            1 PCG160   0.0000
    32 H9          49.3359    52.1245    11.3943 H            1 PCG160   0.0000
    33 H10         50.8008    52.9163    14.4500 H            1 PCG160   0.0000
    34 H11         51.0414    52.4075    12.8120 H            1 PCG160   0.0000
    35 H2A         41.7921    57.5493    18.9152 H            1 PCG160   0.0000
@<TRIPOS>BOND
     1    1    2       2
     2    1    3       1
     3    1    4       1
     4    1    9       1
     5    4    5       1
     6    5    6       1
     7    6    7       1
     8    6    8       1
     9    7   12       1
    10    8    9       1
    11    8   10       1
    12   10   11       1
    13   10   12       1
    14   12   13       1
    15   13   14       1
    16   13   23       1
    17   14   15       2
    18   15   16       1
    19   16   17       1
    20   16   23       2
    21   17   18       2
    22   17   19       1
    23   19   20       1
    24   20   21       1
    25   20   22       2
    26   22   23       1
    27   21   34       1
    28    5   24       1
    29    5   25       1
    30    6   26       1
    31    8   27       1
    32   10   28       1
    33   11   29       1
    34   12   30       1
    35   14   31       1
    36   19   32       1
    37   21   33       1
    38    3   35       1
@<TRIPOS>SUBSTRUCTURE
     1 PCG160      1 GROUP             4 A     PCG     0 **** PCG A 160
