@<TRIPOS>MOLECULE
4goj_GNP_2_ligand
   45    47     1     0     0
SMALL
NO_CHARGES


@<TRIPOS>ATOM
     1 PG         -30.8460   -45.3420    -4.1150 P.3          1 GNP201   0.0000
     2 O1G        -31.0600   -45.0190    -5.5480 O.co2        1 GNP201   0.0000
     3 O2G        -30.8090   -46.7800    -3.8390 O.co2        1 GNP201  -1.0000
     4 O3G        -29.7870   -44.5390    -3.4760 O.co2        1 GNP201  -1.0000
     5 N3B        -32.2590   -44.8580    -3.4440 N.3          1 GNP201   0.0000
     6 PB         -32.6170   -43.2160    -3.4510 P.3          1 GNP201   0.0000
     7 O1B        -32.0260   -42.6070    -2.2420 O.co2        1 GNP201   0.0000
     8 O2B        -32.3740   -42.6020    -4.7720 O.co2        1 GNP201  -1.0000
     9 O3A        -34.1910   -43.2300    -3.2160 O.3          1 GNP201   0.0000
    10 PA         -35.2910   -43.0020    -4.3870 P.3          1 GNP201   0.0000
    11 O1A        -35.0880   -44.0530    -5.3900 O.co2        1 GNP201   0.0000
    12 O2A        -35.3640   -41.5900    -4.7880 O.co2        1 GNP201  -1.0000
    13 O5'        -36.6660   -43.2950    -3.5700 O.3          1 GNP201   0.0000
    14 C5'        -36.9090   -44.5480    -2.9250 C.3          1 GNP201   0.0000
    15 C4'        -38.4090   -44.6940    -2.6090 C.3          1 GNP201   0.0000
    16 O4'        -38.8150   -43.6920    -1.6300 O.3          1 GNP201   0.0000
    17 C3'        -39.2470   -44.4490    -3.8630 C.3          1 GNP201   0.0000
    18 O3'        -40.3360   -45.3640    -3.8410 O.3          1 GNP201   0.0000
    19 C2'        -39.7370   -43.0350    -3.6730 C.3          1 GNP201   0.0000
    20 O2'        -40.9750   -42.8240    -4.3230 O.3          1 GNP201   0.0000
    21 C1'        -39.9210   -42.9510    -2.1710 C.3          1 GNP201   0.0000
    22 N9         -39.8260   -41.5450    -1.7040 N.pl3        1 GNP201   0.0000
    23 C8         -38.8220   -40.6950    -1.9290 C.2          1 GNP201   0.0000
    24 N7         -39.1250   -39.5340    -1.3480 N.2          1 GNP201   0.0000
    25 C5         -40.3140   -39.6620    -0.7590 C.2          1 GNP201   0.0000
    26 C6         -41.0420   -38.7950    -0.0480 C.2          1 GNP201   0.0000
    27 O6         -40.6410   -37.6510     0.1580 O.2          1 GNP201   0.0000
    28 N1         -42.2860   -39.1990     0.4640 N.pl3        1 GNP201   0.0000
    29 C2         -42.7130   -40.5120     0.2220 C.2          1 GNP201   0.0000
    30 N2         -43.8850   -40.9380     0.6880 N.pl3        1 GNP201   0.0000
    31 N3         -41.9370   -41.3380    -0.4950 N.2          1 GNP201   0.0000
    32 C4         -40.7510   -40.9130    -0.9760 C.2          1 GNP201   0.0000
    33 H3B        -32.9955   -45.3246    -3.9337 H            1 GNP201   0.0000
    34 H5'1       -36.3855   -44.5897    -2.0740 H            1 GNP201   0.0000
    35 H5'2       -36.6236   -45.2923    -3.5287 H            1 GNP201   0.0000
    36 H4'        -38.5926   -45.6100    -2.2524 H            1 GNP201   0.0000
    37 H3'        -38.7020   -44.5427    -4.6962 H            1 GNP201   0.0000
    38 H6         -40.9036   -45.2262    -4.6527 H            1 GNP201   0.0000
    39 H2'        -39.0532   -42.3757    -3.9858 H            1 GNP201   0.0000
    40 H8         -41.2710   -41.8799    -4.1780 H            1 GNP201   0.0000
    41 H1'        -40.7914   -43.3593    -1.8958 H            1 GNP201   0.0000
    42 H10        -37.9880   -40.8942    -2.4436 H            1 GNP201   0.0000
    43 H11        -44.1823   -41.8762     0.5110 H            1 GNP201   0.0000
    44 H12        -44.4681   -40.3198     1.2151 H            1 GNP201   0.0000
    45 H13        -42.8537   -38.5648     0.9889 H            1 GNP201   0.0000
@<TRIPOS>BOND
     1    1    2      ar
     2    1    3      ar
     3    1    4      ar
     4    1    5       1
     5    5    6       1
     6    6    7      ar
     7    6    8      ar
     8    6    9       1
     9    9   10       1
    10   10   11      ar
    11   10   12      ar
    12   10   13       1
    13   13   14       1
    14   14   15       1
    15   15   16       1
    16   15   17       1
    17   16   21       1
    18   17   18       1
    19   17   19       1
    20   19   20       1
    21   19   21       1
    22   21   22       1
    23   22   23       1
    24   22   32       1
    25   23   24       2
    26   24   25       1
    27   25   26       1
    28   25   32       2
    29   26   27       2
    30   26   28       1
    31   28   29       1
    32   29   30       1
    33   29   31       2
    34   31   32       1
    35   28   45       1
    36   30   44       1
    37    5   33       1
    38   30   43       1
    39   23   42       1
    40   14   34       1
    41   14   35       1
    42   15   36       1
    43   17   37       1
    44   18   38       1
    45   19   39       1
    46   20   40       1
    47   21   41       1
@<TRIPOS>SUBSTRUCTURE
     1 GNP201      1 GROUP             4 B     GNP     0 **** GNP B 201
