@<TRIPOS>MOLECULE
3qwb_NDP_4_ligand
   73    77     1     0     0
SMALL
NO_CHARGES


@<TRIPOS>ATOM
     1 PA          35.9100   -12.6900    11.6480 P.3          1 NDP335   0.0000
     2 O1A         34.5810   -12.0410    11.6950 O.co2        1 NDP335   0.0000
     3 O2A         35.8390   -14.1630    11.8190 O.co2        1 NDP335  -1.0000
     4 O5B         36.6430   -12.3490    10.2650 O.3          1 NDP335   0.0000
     5 C5B         36.5980   -11.0560     9.6980 C.3          1 NDP335   0.0000
     6 C4B         35.3750   -10.9220     8.7990 C.3          1 NDP335   0.0000
     7 O4B         35.1940    -9.5530     8.4810 O.3          1 NDP335   0.0000
     8 C3B         35.5240   -11.6210     7.4560 C.3          1 NDP335   0.0000
     9 O3B         35.1560   -12.9880     7.4950 O.3          1 NDP335   0.0000
    10 C2B         34.6320   -10.7960     6.5500 C.3          1 NDP335   0.0000
    11 O2B         33.3410   -11.3440     6.4440 O.3          1 NDP335   0.0000
    12 C1B         34.5220    -9.4420     7.2430 C.3          1 NDP335   0.0000
    13 N9A         35.1080    -8.3910     6.3910 N.pl3        1 NDP335   0.0000
    14 C8A         34.4350    -7.2880     5.9330 C.2          1 NDP335   0.0000
    15 N7A         35.2750    -6.5560     5.1740 N.2          1 NDP335   0.0000
    16 C5A         36.4760    -7.1690     5.1410 C.ar         1 NDP335   0.0000
    17 C6A         37.6760    -6.8470     4.5180 C.ar         1 NDP335   0.0000
    18 N6A         37.7260    -5.8600     3.6380 N.pl3        1 NDP335   0.0000
    19 N1A         38.7620    -7.6910     4.6650 N.ar         1 NDP335   0.0000
    20 C2A         38.6550    -8.8430     5.4230 C.ar         1 NDP335   0.0000
    21 N3A         37.4600    -9.1550     6.0420 N.ar         1 NDP335   0.0000
    22 C4A         36.3870    -8.3330     5.9050 C.ar         1 NDP335   0.0000
    23 O3          36.9240   -12.0220    12.7130 O.3          1 NDP335   0.0000
    24 PN          36.7180   -11.9900    14.3190 P.3          1 NDP335   0.0000
    25 O1N         35.4800   -12.7070    14.6920 O.co2        1 NDP335   0.0000
    26 O2N         38.0150   -12.3410    14.9290 O.co2        1 NDP335  -1.0000
    27 O5D         36.4590   -10.4260    14.5860 O.3          1 NDP335   0.0000
    28 C5D         35.3650    -9.7670    13.9880 C.3          1 NDP335   0.0000
    29 C4D         35.6130    -8.2610    13.9660 C.3          1 NDP335   0.0000
    30 O4D         35.4670    -7.7410    15.2740 O.3          1 NDP335   0.0000
    31 C3D         37.0060    -7.8630    13.5060 C.3          1 NDP335   0.0000
    32 O3D         36.9130    -6.6400    12.8100 O.3          1 NDP335   0.0000
    33 C2D         37.7530    -7.6430    14.8030 C.3          1 NDP335   0.0000
    34 O2D         38.8480    -6.7710    14.6640 O.3          1 NDP335   0.0000
    35 C1D         36.6520    -7.0900    15.6950 C.3          1 NDP335   0.0000
    36 N1N         36.8990    -7.3720    17.1030 N.ar         1 NDP335   1.0000
    37 C2N         36.8530    -6.3100    17.9620 C.ar         1 NDP335   0.0000
    38 C3N         36.8040    -6.4770    19.3390 C.ar         1 NDP335   0.0000
    39 C7N         36.7580    -5.2870    20.2250 C.2          1 NDP335   0.0000
    40 O7N         37.0420    -5.4370    21.5060 O.2          1 NDP335   0.0000
    41 N7N         36.4060    -4.0340    19.6860 N.am         1 NDP335   0.0000
    42 C4N         36.7990    -7.8560    19.9590 C.ar         1 NDP335   0.0000
    43 C5N         36.8370    -8.9440    18.9280 C.ar         1 NDP335   0.0000
    44 C6N         36.8810    -8.6640    17.5650 C.ar         1 NDP335   0.0000
    45 P2B         32.4990   -11.1350     5.0870 P.3          1 NDP335   0.0000
    46 O1X         33.3820   -11.6400     3.9610 O.co2        1 NDP335   0.0000
    47 O2X         32.2580    -9.6580     4.9060 O.co2        1 NDP335  -1.0000
    48 O3X         31.2100   -11.9050     5.1820 O.co2        1 NDP335  -1.0000
    49 H5B1        37.4249   -10.9030     9.1568 H            1 NDP335   0.0000
    50 H5B2        36.5475   -10.3756    10.4291 H            1 NDP335   0.0000
    51 H4B         34.5662   -11.2692     9.2736 H            1 NDP335   0.0000
    52 H3B         36.4717   -11.5429     7.1465 H            1 NDP335   0.0000
    53 H5          35.9402   -13.5518     7.2359 H            1 NDP335   0.0000
    54 H2B         35.0465   -10.6953     5.6455 H            1 NDP335   0.0000
    55 H1B         33.5581    -9.2333     7.4084 H            1 NDP335   0.0000
    56 H8A         33.4804    -7.0638     6.1291 H            1 NDP335   0.0000
    57 H6A1        38.5912    -5.6313     3.1918 H            1 NDP335   0.0000
    58 H6A2        36.8986    -5.3428     3.4192 H            1 NDP335   0.0000
    59 H2A         39.4431    -9.4504     5.5230 H            1 NDP335   0.0000
    60 H5D1        34.5356    -9.9586    14.5127 H            1 NDP335   0.0000
    61 H5D2        35.2507   -10.0977    13.0512 H            1 NDP335   0.0000
    62 H4D         34.9378    -7.8294    13.3678 H            1 NDP335   0.0000
    63 H3D         37.4312    -8.5762    12.9487 H            1 NDP335   0.0000
    64 H16         36.3107    -6.7513    12.0195 H            1 NDP335   0.0000
    65 H2D         38.0670    -8.5216    15.1628 H            1 NDP335   0.0000
    66 H18         38.9126    -6.4659    13.7139 H            1 NDP335   0.0000
    67 H1D         36.5655    -6.1035    15.5561 H            1 NDP335   0.0000
    68 H2N         36.8547    -5.3832    17.5865 H            1 NDP335   0.0000
    69 H7N1        36.3727    -3.2274    20.2761 H            1 NDP335   0.0000
    70 H7N2        36.1895    -3.9511    18.7132 H            1 NDP335   0.0000
    71 H4N         36.7733    -8.0234    20.9446 H            1 NDP335   0.0000
    72 H5N         36.8306    -9.8979    19.2280 H            1 NDP335   0.0000
    73 H6N         36.8999    -9.4192    16.9098 H            1 NDP335   0.0000
@<TRIPOS>BOND
     1    1    2      ar
     2    1    3      ar
     3    1    4       1
     4    1   23       1
     5    4    5       1
     6    5    6       1
     7    6    7       1
     8    6    8       1
     9    7   12       1
    10    8    9       1
    11    8   10       1
    12   10   11       1
    13   10   12       1
    14   11   45       1
    15   12   13       1
    16   13   14       1
    17   13   22       1
    18   14   15       2
    19   15   16       1
    20   16   17      ar
    21   16   22      ar
    22   17   18       1
    23   17   19      ar
    24   19   20      ar
    25   20   21      ar
    26   21   22      ar
    27   23   24       1
    28   24   25      ar
    29   24   26      ar
    30   24   27       1
    31   27   28       1
    32   28   29       1
    33   29   30       1
    34   29   31       1
    35   30   35       1
    36   31   32       1
    37   31   33       1
    38   33   34       1
    39   33   35       1
    40   35   36       1
    41   36   37      ar
    42   36   44      ar
    43   37   38      ar
    44   38   39       1
    45   38   42      ar
    46   39   40       2
    47   39   41      am
    48   42   43      ar
    49   43   44      ar
    50   45   46      ar
    51   45   47      ar
    52   45   48      ar
    53   43   72       1
    54    5   49       1
    55    5   50       1
    56    6   51       1
    57    8   52       1
    58    9   53       1
    59   10   54       1
    60   12   55       1
    61   14   56       1
    62   18   57       1
    63   18   58       1
    64   20   59       1
    65   44   73       1
    66   28   60       1
    67   28   61       1
    68   29   62       1
    69   31   63       1
    70   32   64       1
    71   33   65       1
    72   34   66       1
    73   35   67       1
    74   37   68       1
    75   41   69       1
    76   41   70       1
    77   42   71       1
@<TRIPOS>SUBSTRUCTURE
     1 NDP335      1 GROUP             4 D     NDP     0 **** NDP D 335
