@<TRIPOS>MOLECULE
./coach420/2hix/ligand.pdb
 31 33 0 0 0
SMALL
GASTEIGER

@<TRIPOS>ATOM
      1  PG        15.9620   31.0090   24.9040 P.3   602  ATP602      0.5373
      2  O1G       16.9050   31.3020   26.0450 O.3   602  ATP602     -0.1143
      3  O2G       16.3230   31.6710   23.6040 O.2   602  ATP602     -0.2221
      4  O3G       15.5660   29.5770   24.7080 O.3   602  ATP602     -0.1143
      5  PB        13.1450   31.2440   25.1580 P.3   602  ATP602      0.2277
      6  O1B       13.0670   29.8290   25.6790 O.3   602  ATP602     -0.4368
      7  O2B       12.1450   32.2740   25.6360 O.2   602  ATP602     -0.5168
      8  O3B       14.6420   31.7770   25.4160 O.3   602  ATP602     -0.2258
      9  PA        12.0420   30.4890   22.7600 P.3   602  ATP602      0.2189
     10  O1A       10.9560   30.0240   23.7040 O.3   602  ATP602     -0.4371
     11  O2A       11.6650   31.2330   21.5000 O.2   602  ATP602     -0.5170
     12  O3A       13.1430   31.3280   23.5610 O.3   602  ATP602     -0.2700
     13  O5'       12.9270   29.1990   22.4170 O.3   602  ATP602     -0.3112
     14  C5'       13.8800   29.3560   21.3800 C.3   602  ATP602      0.1813
     15  C4'       15.0000   28.3670   21.5880 C.3   602  ATP602      0.1801
     16  O4'       15.0330   27.4800   20.4700 O.3   602  ATP602     -0.3306
     17  C3'       16.2870   29.1450   21.5850 C.3   602  ATP602      0.2161
     18  O3'       17.2130   28.3600   22.3420 O.3   602  ATP602     -0.2175
     19  C2'       16.6290   29.1950   20.1130 C.3   602  ATP602      0.2337
     20  O2'       18.0410   29.3360   19.9030 O.3   602  ATP602     -0.2155
     21  C1'       16.1350   27.8270   19.6370 C.3   602  ATP602      0.2409
     22  N9        15.8890   27.6770   18.1710 N.ar  602  ATP602     -0.2693
     23  C8        14.8450   27.1000   17.5410 C.ar  602  ATP602      0.1816
     24  N7        15.0190   27.0820   16.1950 N.ar  602  ATP602     -0.2193
     25  C5        16.2250   27.6510   15.9460 C.ar  602  ATP602      0.1518
     26  C6        17.0800   27.9860   14.7630 C.ar  602  ATP602      0.1919
     27  N6        16.7350   27.7410   13.4830 N.pl3 602  ATP602     -0.1054
     28  N1        18.2680   28.5790   14.9970 N.ar  602  ATP602     -0.2040
     29  C2        18.7020   28.8810   16.2360 C.ar  602  ATP602      0.2016
     30  N3        17.9880   28.6190   17.3410 N.ar  602  ATP602     -0.2048
     31  C4        16.7810   28.0230   17.2590 C.ar  602  ATP602      0.1692
@<TRIPOS>BOND
     1     1     3    2
     2     1     4    1
     3     1     8    1
     4     1     2    1
     5     5    12    1
     6     5     8    1
     7     5     7    2
     8     5     6    1
     9     9    11    2
    10     9    13    1
    11     9    12    1
    12     9    10    1
    13    13    14    1
    14    14    15    1
    15    15    16    1
    16    15    17    1
    17    16    21    1
    18    17    19    1
    19    17    18    1
    20    19    21    1
    21    19    20    1
    22    21    22    1
    23    22    31   ar
    24    22    23   ar
    25    23    24   ar
    26    24    25   ar
    27    25    26   ar
    28    25    31   ar
    29    26    27    1
    30    26    28   ar
    31    28    29   ar
    32    29    30   ar
    33    30    31   ar
