@<TRIPOS>MOLECULE
1fp2_HMO_1_ligand
   32    34     1     0     0
SMALL
NO_CHARGES


@<TRIPOS>ATOM
     1 C1         -19.2850     6.9240    14.4890 C.ar         1 HMO2000   0.0000
     2 C2         -18.6640     5.8230    15.1630 C.ar         1 HMO2000   0.0000
     3 C3         -17.9090     5.9730    16.3840 C.ar         1 HMO2000   0.0000
     4 C4         -17.7890     7.3010    16.9290 C.ar         1 HMO2000   0.0000
     5 C5         -18.4150     8.4730    16.3050 C.ar         1 HMO2000   0.0000
     6 C6         -19.1550     8.2730    15.1000 C.ar         1 HMO2000   0.0000
     7 C7         -16.9830     7.4860    18.1540 C.2          1 HMO2000   0.0000
     8 C8         -16.8760     8.9160    18.6500 C.2          1 HMO2000   0.0000
     9 C9         -17.5390     9.9420    17.9640 C.2          1 HMO2000   0.0000
    10 O10        -18.3230     9.7420    16.7890 O.2          1 HMO2000   0.0000
    11 C11        -16.0450     9.1800    19.8290 C.ar         1 HMO2000   0.0000
    12 C12        -16.2850     8.5190    21.0990 C.ar         1 HMO2000   0.0000
    13 C13        -15.4720     8.7780    22.2130 C.ar         1 HMO2000   0.0000
    14 C14        -14.3210     9.7730    22.0630 C.ar         1 HMO2000   0.0000
    15 C15        -14.0850    10.4200    20.8300 C.ar         1 HMO2000   0.0000
    16 C16        -14.8950    10.1630    19.7200 C.ar         1 HMO2000   0.0000
    17 O17        -13.5680    10.0480    23.0270 O.3          1 HMO2000   0.0000
    18 O18        -16.4190     6.4660    18.7010 O.2          1 HMO2000   0.0000
    19 O19        -19.9660     6.7190    13.2730 O.3          1 HMO2000   0.0000
    20 C20        -20.5220     7.7420    12.5750 C.3          1 HMO2000   0.0000
    21 H1         -18.7579     4.9085    14.7695 H            1 HMO2000   0.0000
    22 H2         -17.4861     5.1863    16.8337 H            1 HMO2000   0.0000
    23 H3         -19.5942     9.0555    14.6587 H            1 HMO2000   0.0000
    24 H4         -17.4576    10.8728    18.3203 H            1 HMO2000   0.0000
    25 H5         -17.0409     7.8695    21.1812 H            1 HMO2000   0.0000
    26 H6         -15.6419     8.3215    23.0864 H            1 HMO2000   0.0000
    27 H7         -13.3292    11.0699    20.7500 H            1 HMO2000   0.0000
    28 H8         -14.7160    10.6279    18.8529 H            1 HMO2000   0.0000
    29 H9         -12.8209    10.7018    22.9072 H            1 HMO2000   0.0000
    30 H10        -20.9541     7.3846    11.7471 H            1 HMO2000   0.0000
    31 H11        -21.2102     8.1963    13.1407 H            1 HMO2000   0.0000
    32 H12        -19.8112     8.3988    12.3231 H            1 HMO2000   0.0000
@<TRIPOS>BOND
     1    1    2      ar
     2    1    6      ar
     3    1   19       1
     4    2    3      ar
     5    3    4      ar
     6    4    5      ar
     7    4    7       1
     8    5    6      ar
     9    5   10       1
    10    7    8       1
    11    7   18       2
    12    8    9       2
    13    8   11       1
    14    9   10       1
    15   11   12      ar
    16   11   16      ar
    17   12   13      ar
    18   13   14      ar
    19   14   15      ar
    20   14   17       1
    21   15   16      ar
    22   19   20       1
    23    2   21       1
    24    3   22       1
    25    6   23       1
    26    9   24       1
    27   12   25       1
    28   13   26       1
    29   15   27       1
    30   16   28       1
    31   17   29       1
    32   20   30       1
    33   20   31       1
    34   20   32       1
@<TRIPOS>SUBSTRUCTURE
     1 HMO2000     1 GROUP             4 A     HMO     0 **** HMO A2000
