@<TRIPOS>MOLECULE
3h4v_NAP_9_ligand
   73    77     1     0     0
SMALL
NO_CHARGES


@<TRIPOS>ATOM
     1 PA          -3.8300   -17.3430    24.9500 P.3          1 NAP300   0.0000
     2 O1A         -3.9810   -17.5770    26.3940 O.co2        1 NAP300   0.0000
     3 O2A         -5.1080   -17.2270    24.2570 O.co2        1 NAP300  -1.0000
     4 O5B         -3.0090   -18.6420    24.4820 O.3          1 NAP300   0.0000
     5 C5B         -1.9520   -18.6130    23.5750 C.3          1 NAP300   0.0000
     6 C4B         -1.7490   -20.0220    23.0500 C.3          1 NAP300   0.0000
     7 O4B         -0.6740   -20.5530    23.7770 O.3          1 NAP300   0.0000
     8 C3B         -2.8740   -21.0360    23.2930 C.3          1 NAP300   0.0000
     9 O3B         -3.8780   -21.0880    22.3030 O.3          1 NAP300   0.0000
    10 C2B         -2.1090   -22.3600    23.3810 C.3          1 NAP300   0.0000
    11 O2B         -2.1570   -23.1270    22.2150 O.3          1 NAP300   0.0000
    12 C1B         -0.6490   -21.9440    23.5660 C.3          1 NAP300   0.0000
    13 N9A         -0.0610   -22.6910    24.6770 N.pl3        1 NAP300   0.0000
    14 C8A         -0.3980   -22.6220    26.0000 C.2          1 NAP300   0.0000
    15 N7A          0.3160   -23.5350    26.6870 N.2          1 NAP300   0.0000
    16 C5A          1.1220   -24.1630    25.8030 C.ar         1 NAP300   0.0000
    17 C6A          2.0640   -25.1510    25.9550 C.ar         1 NAP300   0.0000
    18 N6A          2.2670   -25.7920    27.1490 N.pl3        1 NAP300   0.0000
    19 N1A          2.6650   -25.6320    24.7740 N.ar         1 NAP300   0.0000
    20 C2A          2.3860   -25.1540    23.5270 C.ar         1 NAP300   0.0000
    21 N3A          1.4860   -24.1560    23.4310 N.ar         1 NAP300   0.0000
    22 C4A          0.8670   -23.6760    24.5410 C.ar         1 NAP300   0.0000
    23 O3          -2.8880   -16.1090    24.5970 O.3          1 NAP300   0.0000
    24 PN          -3.4370   -14.6870    24.1580 P.3          1 NAP300   0.0000
    25 O1N         -4.4460   -14.2140    25.1190 O.co2        1 NAP300   0.0000
    26 O2N         -3.7420   -14.8860    22.7060 O.co2        1 NAP300  -1.0000
    27 O5D         -2.1570   -13.7030    24.3040 O.3          1 NAP300   0.0000
    28 C5D         -1.0310   -14.0220    23.5390 C.3          1 NAP300   0.0000
    29 C4D          0.2950   -13.6980    24.1700 C.3          1 NAP300   0.0000
    30 O4D          0.2920   -12.3780    24.6300 O.3          1 NAP300   0.0000
    31 C3D          0.5730   -14.5990    25.3550 C.3          1 NAP300   0.0000
    32 O3D          1.9640   -14.7560    25.4360 O.3          1 NAP300   0.0000
    33 C2D          0.2190   -13.7170    26.5440 C.3          1 NAP300   0.0000
    34 O2D          0.9920   -14.0020    27.6930 O.3          1 NAP300   0.0000
    35 C1D          0.4760   -12.3250    26.0470 C.3          1 NAP300   0.0000
    36 N1N         -0.4640   -11.4800    26.7900 N.ar         1 NAP300   1.0000
    37 C2N         -1.8100   -11.5690    26.5780 C.ar         1 NAP300   0.0000
    38 C3N         -2.7150   -10.7940    27.2860 C.ar         1 NAP300   0.0000
    39 C7N         -4.2010   -10.7760    26.9800 C.2          1 NAP300   0.0000
    40 O7N         -4.9730    -9.8100    27.6610 O.2          1 NAP300   0.0000
    41 N7N         -4.7730   -11.6350    26.1250 N.am         1 NAP300   0.0000
    42 C4N         -2.2140    -9.9190    28.2460 C.ar         1 NAP300   0.0000
    43 C5N         -0.8420    -9.8340    28.4930 C.ar         1 NAP300   0.0000
    44 C6N          0.0360   -10.6300    27.7500 C.ar         1 NAP300   0.0000
    45 P2B         -3.2780   -24.2530    21.9470 P.3          1 NAP300   0.0000
    46 O1X         -2.9400   -24.5870    20.5140 O.co2        1 NAP300   0.0000
    47 O2X         -3.0640   -25.4000    22.8830 O.co2        1 NAP300  -1.0000
    48 O3X         -4.6450   -23.6550    22.0020 O.co2        1 NAP300  -1.0000
    49 H5B1        -1.1205   -18.2978    24.0323 H            1 NAP300   0.0000
    50 H5B2        -2.1704   -17.9967    22.8184 H            1 NAP300   0.0000
    51 H4B         -1.5208   -19.9932    22.0768 H            1 NAP300   0.0000
    52 H3B         -3.2987   -20.8456    24.1781 H            1 NAP300   0.0000
    53 H5          -4.2536   -22.0137    22.2575 H            1 NAP300   0.0000
    54 H2B         -2.4231   -22.8948    24.1654 H            1 NAP300   0.0000
    55 H1B         -0.1401   -22.1422    22.7283 H            1 NAP300   0.0000
    56 H8A         -1.0681   -21.9937    26.3952 H            1 NAP300   0.0000
    57 H6A1         2.9627   -26.5068    27.2208 H            1 NAP300   0.0000
    58 H6A2         1.7195   -25.5450    27.9485 H            1 NAP300   0.0000
    59 H2A          2.8325   -25.5301    22.7151 H            1 NAP300   0.0000
    60 H5D1        -1.0924   -13.5197    22.6765 H            1 NAP300   0.0000
    61 H5D2        -1.0523   -15.0046    23.3547 H            1 NAP300   0.0000
    62 H4D          1.0208   -13.8104    23.4913 H            1 NAP300   0.0000
    63 H3D          0.0706   -15.4633    25.3307 H            1 NAP300   0.0000
    64 H16          2.2422   -15.5486    24.8933 H            1 NAP300   0.0000
    65 H2D         -0.7518   -13.8209    26.7600 H            1 NAP300   0.0000
    66 H18          0.8454   -14.9528    27.9660 H            1 NAP300   0.0000
    67 H1D          1.4157   -12.0562    26.2584 H            1 NAP300   0.0000
    68 H2N         -2.1524   -12.2115    25.8925 H            1 NAP300   0.0000
    69 H7N1        -5.7568   -11.5880    25.9523 H            1 NAP300   0.0000
    70 H7N2        -4.2160   -12.3229    25.6598 H            1 NAP300   0.0000
    71 H4N         -2.8452    -9.3434    28.7659 H            1 NAP300   0.0000
    72 H5N         -0.4915    -9.2115    29.1927 H            1 NAP300   0.0000
    73 H6N          1.0211   -10.5817    27.9154 H            1 NAP300   0.0000
@<TRIPOS>BOND
     1    1    2      ar
     2    1    3      ar
     3    1    4       1
     4    1   23       1
     5    4    5       1
     6    5    6       1
     7    6    7       1
     8    6    8       1
     9    7   12       1
    10    8    9       1
    11    8   10       1
    12   10   11       1
    13   10   12       1
    14   11   45       1
    15   12   13       1
    16   13   14       1
    17   13   22       1
    18   14   15       2
    19   15   16       1
    20   16   17      ar
    21   16   22      ar
    22   17   18       1
    23   17   19      ar
    24   19   20      ar
    25   20   21      ar
    26   21   22      ar
    27   23   24       1
    28   24   25      ar
    29   24   26      ar
    30   24   27       1
    31   27   28       1
    32   28   29       1
    33   29   30       1
    34   29   31       1
    35   30   35       1
    36   31   32       1
    37   31   33       1
    38   33   34       1
    39   33   35       1
    40   35   36       1
    41   36   37      ar
    42   36   44      ar
    43   37   38      ar
    44   38   39       1
    45   38   42      ar
    46   39   40       2
    47   39   41      am
    48   42   43      ar
    49   43   44      ar
    50   45   46      ar
    51   45   47      ar
    52   45   48      ar
    53   43   72       1
    54    5   49       1
    55    5   50       1
    56    6   51       1
    57    8   52       1
    58    9   53       1
    59   10   54       1
    60   12   55       1
    61   14   56       1
    62   18   57       1
    63   18   58       1
    64   20   59       1
    65   44   73       1
    66   28   60       1
    67   28   61       1
    68   29   62       1
    69   31   63       1
    70   32   64       1
    71   33   65       1
    72   34   66       1
    73   35   67       1
    74   37   68       1
    75   41   69       1
    76   41   70       1
    77   42   71       1
@<TRIPOS>SUBSTRUCTURE
     1 NAP300      1 GROUP             4 A     NAP     0 **** NAP A 300
