@<TRIPOS>MOLECULE
3irh_DTP_3_ligand
   42    44     1     0     0
SMALL
NO_CHARGES


@<TRIPOS>ATOM
     1 PG         -48.8530    29.2220     9.3670 P.3          1 DTP459   0.0000
     2 O1G        -50.0170    29.8780    10.2280 O.co2        1 DTP459   0.0000
     3 O2G        -47.6890    28.4470    10.4790 O.co2        1 DTP459  -1.0000
     4 O3G        -47.9890    30.4760     8.4290 O.co2        1 DTP459  -1.0000
     5 PB         -48.5520    27.3220     7.3080 P.3          1 DTP459   0.0000
     6 O1B        -48.8050    25.7500     7.3810 O.co2        1 DTP459   0.0000
     7 O2B        -46.8320    27.6800     7.6360 O.co2        1 DTP459  -1.0000
     8 O3B        -49.4840    28.1250     8.3560 O.3          1 DTP459   0.0000
     9 PA         -48.1170    28.8090     4.9360 P.3          1 DTP459   0.0000
    10 O1A        -46.5770    28.6070     5.2810 O.co2        1 DTP459   0.0000
    11 O2A        -48.4060    28.5210     3.1970 O.co2        1 DTP459  -1.0000
    12 O3A        -49.0250    27.8380     5.8460 O.3          1 DTP459   0.0000
    13 O5'        -48.6100    30.2800     5.3800 O.3          1 DTP459   0.0000
    14 C5'        -49.6500    30.9360     4.6580 C.3          1 DTP459   0.0000
    15 C4'        -50.6870    31.6320     5.5430 C.3          1 DTP459   0.0000
    16 O4'        -51.9660    31.4770     4.9270 O.3          1 DTP459   0.0000
    17 C3'        -50.8110    31.0800     6.9540 C.3          1 DTP459   0.0000
    18 O3'        -50.5640    32.1000     7.9160 O.3          1 DTP459   0.0000
    19 C2'        -52.2390    30.6340     7.1310 C.3          1 DTP459   0.0000
    20 C1'        -52.8960    30.8030     5.7770 C.3          1 DTP459   0.0000
    21 N9         -53.2410    29.4580     5.2480 N.pl3        1 DTP459   0.0000
    22 C8         -52.3890    28.5710     4.7050 C.2          1 DTP459   0.0000
    23 N7         -53.0730    27.4630     4.3470 N.2          1 DTP459   0.0000
    24 C5         -54.3690    27.6650     4.6740 C.ar         1 DTP459   0.0000
    25 C6         -55.5270    26.8990     4.5550 C.ar         1 DTP459   0.0000
    26 N6         -55.4720    25.6660     4.0090 N.pl3        1 DTP459   0.0000
    27 N1         -56.7090    27.3960     4.9890 N.ar         1 DTP459   0.0000
    28 C2         -56.7760    28.6190     5.5350 C.ar         1 DTP459   0.0000
    29 N3         -55.6730    29.3750     5.6640 N.ar         1 DTP459   0.0000
    30 C4         -54.4650    28.9240     5.2460 C.ar         1 DTP459   0.0000
    31 H5'1       -50.1219    30.2541     4.0992 H            1 DTP459   0.0000
    32 H5'2       -49.2332    31.6236     4.0634 H            1 DTP459   0.0000
    33 H4'        -50.4678    32.6063     5.5942 H            1 DTP459   0.0000
    34 H3'        -50.1842    30.3123     7.0872 H            1 DTP459   0.0000
    35 H5         -49.7837    31.8399     8.4848 H            1 DTP459   0.0000
    36 H2'1       -52.6987    31.2014     7.8142 H            1 DTP459   0.0000
    37 H2'2       -52.2716    29.6762     7.4166 H            1 DTP459   0.0000
    38 H1'        -53.7265    31.3520     5.8710 H            1 DTP459   0.0000
    39 H9         -51.4059    28.7096     4.5853 H            1 DTP459   0.0000
    40 H10        -56.3048    25.1188     3.9250 H            1 DTP459   0.0000
    41 H11        -54.5985    25.2996     3.6884 H            1 DTP459   0.0000
    42 H12        -57.6570    28.9723     5.8497 H            1 DTP459   0.0000
@<TRIPOS>BOND
     1    1    2      ar
     2    1    3      ar
     3    1    4      ar
     4    1    8       1
     5    5    6      ar
     6    5    7      ar
     7    5    8       1
     8    5   12       1
     9    9   10      ar
    10    9   11      ar
    11    9   12       1
    12    9   13       1
    13   13   14       1
    14   14   15       1
    15   15   16       1
    16   15   17       1
    17   16   20       1
    18   17   18       1
    19   17   19       1
    20   19   20       1
    21   20   21       1
    22   21   22       1
    23   21   30       1
    24   22   23       2
    25   23   24       1
    26   24   25      ar
    27   24   30      ar
    28   25   26       1
    29   25   27      ar
    30   27   28      ar
    31   28   29      ar
    32   29   30      ar
    33   28   42       1
    34   26   41       1
    35   26   40       1
    36   22   39       1
    37   14   31       1
    38   14   32       1
    39   15   33       1
    40   17   34       1
    41   18   35       1
    42   19   36       1
    43   19   37       1
    44   20   38       1
@<TRIPOS>SUBSTRUCTURE
     1 DTP459      1 GROUP             4 B     DTP     0 **** DTP B 459
