@<TRIPOS>MOLECULE
4f48_C2E_1_ligand
   70    76     1     0     0
SMALL
NO_CHARGES


@<TRIPOS>ATOM
     1 P1          18.6460    62.1800    23.9450 P.3          1 C2E501   0.0000
     2 O2P         19.3860    62.9810    24.9800 O.2          1 C2E501   0.0000
     3 O1P         19.1110    60.7480    23.9530 O.3          1 C2E501   0.0000
     4 O5'         17.0400    62.1860    24.1950 O.3          1 C2E501   0.0000
     5 C5'         16.1910    61.4700    23.2640 C.3          1 C2E501   0.0000
     6 C4'         14.6530    61.5160    23.5670 C.3          1 C2E501   0.0000
     7 O4'         14.2940    60.3200    24.2450 O.3          1 C2E501   0.0000
     8 C3'         14.0890    62.6730    24.4160 C.3          1 C2E501   0.0000
     9 O3'         13.6350    63.8310    23.5840 O.3          1 C2E501   0.0000
    10 C2'         12.9650    61.9510    25.2130 C.3          1 C2E501   0.0000
    11 O2'         11.6780    62.2240    24.6270 O.3          1 C2E501   0.0000
    12 C1'         13.2480    60.4280    25.2200 C.3          1 C2E501   0.0000
    13 N9          13.6910    59.9350    26.5840 N.pl3        1 C2E501   0.0000
    14 C8          14.9290    59.5000    26.9370 C.2          1 C2E501   0.0000
    15 N7          14.9940    59.1060    28.2380 N.2          1 C2E501   0.0000
    16 C5          13.7790    59.2730    28.7500 C.2          1 C2E501   0.0000
    17 C6          13.1460    59.0370    30.0710 C.2          1 C2E501   0.0000
    18 O6          13.8290    58.5710    31.0160 O.2          1 C2E501   0.0000
    19 N1          11.8150    59.3340    30.2260 N.2          1 C2E501   0.0000
    20 C2          11.0530    59.8430    29.2000 C.2          1 C2E501   0.0000
    21 N2           9.7390    60.1150    29.4060 N.pl3        1 C2E501   0.0000
    22 N3          11.5830    60.0880    27.9460 N.pl3        1 C2E501   0.0000
    23 C4          12.9100    59.8270    27.6670 C.2          1 C2E501   0.0000
    24 P11         14.5910    65.1850    23.6550 P.3          1 C2E501   0.0000
    25 O21         14.7200    65.5990    25.1110 O.2          1 C2E501   0.0000
    26 O11         13.9330    66.2500    22.8120 O.3          1 C2E501   0.0000
    27 O5A         16.0310    64.8960    23.0000 O.3          1 C2E501   0.0000
    28 C5A         16.1060    64.5320    21.5970 C.3          1 C2E501   0.0000
    29 C4A         17.5390    64.2590    21.1330 C.3          1 C2E501   0.0000
    30 O4A         18.0490    65.1870    20.1350 O.3          1 C2E501   0.0000
    31 C3A         18.5730    64.1800    22.2870 C.3          1 C2E501   0.0000
    32 O3A         18.9970    62.7930    22.4570 O.3          1 C2E501   0.0000
    33 C2A         19.6670    65.1710    21.8970 C.3          1 C2E501   0.0000
    34 O2A         20.9580    64.5140    21.9000 O.3          1 C2E501   0.0000
    35 C1A         19.3220    65.7430    20.5070 C.3          1 C2E501   0.0000
    36 N91         19.2960    67.2520    20.4870 N.pl3        1 C2E501   0.0000
    37 C81         18.3160    68.0570    20.9610 C.2          1 C2E501   0.0000
    38 N71         18.6150    69.3720    20.7780 N.2          1 C2E501   0.0000
    39 C51         19.8190    69.4390    20.1670 C.2          1 C2E501   0.0000
    40 C61         20.7500    70.5210    19.6690 C.2          1 C2E501   0.0000
    41 O61         20.4750    71.7390    19.7770 O.2          1 C2E501   0.0000
    42 N11         21.9210    70.1490    19.0850 N.2          1 C2E501   0.0000
    43 C21         22.2830    68.8360    18.9360 C.2          1 C2E501   0.0000
    44 N21         23.4710    68.5470    18.3400 N.pl3        1 C2E501   0.0000
    45 N31         21.4820    67.8020    19.3690 N.pl3        1 C2E501   0.0000
    46 C41         20.2620    68.0370    19.9790 C.2          1 C2E501   0.0000
    47 H5'1        16.4752    60.5112    23.2650 H            1 C2E501   0.0000
    48 H5'2        16.3361    61.8598    22.3546 H            1 C2E501   0.0000
    49 H4'         14.1723    61.5223    22.6902 H            1 C2E501   0.0000
    50 H3'         14.7936    62.9846    25.0535 H            1 C2E501   0.0000
    51 H2'         12.9696    62.2858    26.1553 H            1 C2E501   0.0000
    52 H6          11.7931    62.8208    23.8329 H            1 C2E501   0.0000
    53 H1'         12.4390    59.9246    24.9164 H            1 C2E501   0.0000
    54 H8          15.7071    59.4724    26.3095 H            1 C2E501   0.0000
    55 H9           9.1824    60.4851    28.6622 H            1 C2E501   0.0000
    56 H10          9.3277    59.9453    30.3016 H            1 C2E501   0.0000
    57 H5A1        15.7305    65.2813    21.0516 H            1 C2E501   0.0000
    58 H5A2        15.5599    63.7071    21.4509 H            1 C2E501   0.0000
    59 H4A         17.5288    63.3572    20.7009 H            1 C2E501   0.0000
    60 H3A         18.1395    64.4922    23.1323 H            1 C2E501   0.0000
    61 H2A         19.6809    65.9180    22.5616 H            1 C2E501   0.0000
    62 H16         20.8432    63.5547    22.1579 H            1 C2E501   0.0000
    63 H1A         20.0101    65.4279    19.8534 H            1 C2E501   0.0000
    64 H18         17.4765    67.7263    21.3921 H            1 C2E501   0.0000
    65 H19         23.7527    67.5948    18.2222 H            1 C2E501   0.0000
    66 H20         24.0627    69.2868    18.0196 H            1 C2E501   0.0000
    67 H1P         18.9429    60.3480    24.8540 H            1 C2E501   0.0000
    68 H22         14.4870    67.0822    22.8342 H            1 C2E501   0.0000
    69 H23         10.9946    60.4608    27.2286 H            1 C2E501   0.0000
    70 H24         21.7894    66.8593    19.2395 H            1 C2E501   0.0000
@<TRIPOS>BOND
     1    1    2       2
     2    1    3       1
     3    1    4       1
     4    1   32       1
     5    4    5       1
     6    5    6       1
     7    6    7       1
     8    6    8       1
     9    7   12       1
    10    8    9       1
    11    8   10       1
    12    9   24       1
    13   10   11       1
    14   10   12       1
    15   12   13       1
    16   13   14       1
    17   13   23       1
    18   14   15       2
    19   15   16       1
    20   16   17       1
    21   16   23       2
    22   17   18       2
    23   17   19       1
    24   19   20       2
    25   20   21       1
    26   20   22       1
    27   22   23       1
    28   24   25       2
    29   24   26       1
    30   24   27       1
    31   27   28       1
    32   28   29       1
    33   29   30       1
    34   29   31       1
    35   30   35       1
    36   31   32       1
    37   31   33       1
    38   33   34       1
    39   33   35       1
    40   35   36       1
    41   36   37       1
    42   36   46       1
    43   37   38       2
    44   38   39       1
    45   39   40       1
    46   39   46       2
    47   40   41       2
    48   40   42       1
    49   42   43       2
    50   43   44       1
    51   43   45       1
    52   45   46       1
    53   44   66       1
    54    5   47       1
    55    5   48       1
    56    6   49       1
    57    8   50       1
    58   10   51       1
    59   11   52       1
    60   12   53       1
    61   14   54       1
    62   26   68       1
    63   21   55       1
    64   21   56       1
    65    3   67       1
    66   28   57       1
    67   28   58       1
    68   29   59       1
    69   31   60       1
    70   33   61       1
    71   34   62       1
    72   35   63       1
    73   37   64       1
    74   22   69       1
    75   44   65       1
    76   45   70       1
@<TRIPOS>SUBSTRUCTURE
     1 C2E501      1 GROUP             4 A     C2E     0 **** C2E A 501
