@<TRIPOS>MOLECULE
4b52_RDF_1_ligand
   69    71     1     0     0
SMALL
NO_CHARGES


@<TRIPOS>ATOM
     1 C1          -0.7630    20.7570    45.4150 C.3          1 RDF501   0.0000
     2 O1          -1.0930    19.8240    46.4440 O.3          1 RDF501   0.0000
     3 C2           0.4000    20.2450    44.5540 C.3          1 RDF501   0.0000
     4 O2           0.7250    21.2300    43.5670 O.3          1 RDF501   0.0000
     5 C3          -0.0190    19.0290    43.7400 C.3          1 RDF501   0.0000
     6 O3           1.0440    18.5780    42.8690 O.3          1 RDF501   0.0000
     7 C4          -1.2910    19.2690    42.9380 C.3          1 RDF501   0.0000
     8 O4          -1.7780    17.9860    42.4780 O.3          1 RDF501   0.0000
     9 C5          -2.4340    19.8330    43.8480 C.3          1 RDF501   0.0000
    10 O5          -1.9330    20.9540    44.5890 O.3          1 RDF501   0.0000
    11 C6          -3.8420    20.1440    43.2100 C.3          1 RDF501   0.0000
    12 P           -2.0730    20.1080    47.6560 P.3          1 RDF501   0.0000
    13 O1P         -3.3520    20.8680    47.2730 O.co2        1 RDF501   0.0000
    14 O2P         -2.0950    18.7530    48.2740 O.co2        1 RDF501  -1.0000
    15 N           -1.0250    21.0970    48.6700 N.3          1 RDF501   0.0000
    16 CA          -1.7800    21.9820    49.5770 C.3          1 RDF501   0.0000
    17 C           -2.3100    23.2840    49.0420 C.2          1 RDF501   0.0000
    18 O           -3.3720    23.7120    49.4300 O.2          1 RDF501   0.0000
    19 CB          -0.9630    22.2570    50.8230 C.3          1 RDF501   0.0000
    20 CG          -1.7290    22.9530    51.9510 C.3          1 RDF501   0.0000
    21 CD1         -2.6790    21.9480    52.5400 C.3          1 RDF501   0.0000
    22 CD2         -0.6880    23.3210    52.9970 C.3          1 RDF501   0.0000
    23 N1          -1.4910    23.9240    48.2460 N.am         1 RDF501   0.0000
    24 CA1         -1.7960    25.1890    47.6400 C.3          1 RDF501   0.0000
    25 C7          -1.1240    25.3320    46.3130 C.2          1 RDF501   0.0000
    26 O6          -1.4630    26.3340    45.7240 O.co2        1 RDF501   0.0000
    27 CB1         -1.4600    26.3920    48.5320 C.3          1 RDF501   0.0000
    28 CG1          0.0420    26.6770    48.5950 C.2          1 RDF501   0.0000
    29 CD11         0.9970    25.8570    49.2000 C.2          1 RDF501   0.0000
    30 CD21         0.7540    27.7710    48.1130 C.ar         1 RDF501   0.0000
    31 NE1          2.2160    26.4510    49.0820 N.pl3        1 RDF501   0.0000
    32 CE2          2.0900    27.6120    48.4410 C.ar         1 RDF501   0.0000
    33 CE3          0.3170    28.9090    47.4210 C.ar         1 RDF501   0.0000
    34 CZ2          3.0520    28.5620    48.0890 C.ar         1 RDF501   0.0000
    35 CZ3          1.2950    29.8500    47.0320 C.ar         1 RDF501   0.0000
    36 CH2          2.6500    29.6950    47.3670 C.ar         1 RDF501   0.0000
    37 OXT         -0.3100    24.4930    45.8860 O.co2        1 RDF501  -1.0000
    38 H1          -0.5045    21.6284    45.8320 H            1 RDF501   0.0000
    39 H2           1.1962    20.0350    45.1215 H            1 RDF501   0.0000
    40 H3           1.4826    20.9001    43.0037 H            1 RDF501   0.0000
    41 H4          -0.2090    18.2894    44.3857 H            1 RDF501   0.0000
    42 H5           0.9685    17.5899    42.7349 H            1 RDF501   0.0000
    43 H6          -1.1155    19.8806    42.1666 H            1 RDF501   0.0000
    44 H7          -2.6152    18.1180    41.9473 H            1 RDF501   0.0000
    45 H8          -2.6044    19.1211    44.5293 H            1 RDF501   0.0000
    46 H9          -4.4576    20.4948    43.9157 H            1 RDF501   0.0000
    47 H10         -3.7372    20.8287    42.4887 H            1 RDF501   0.0000
    48 H11         -4.2242    19.3058    42.8210 H            1 RDF501   0.0000
    49 H12         -0.4485    20.4924    49.2196 H            1 RDF501   0.0000
    50 HA          -2.5776    21.4586    49.8768 H            1 RDF501   0.0000
    51 HB1         -0.1904    22.8379    50.5667 H            1 RDF501   0.0000
    52 HB2         -0.6223    21.3836    51.1709 H            1 RDF501   0.0000
    53 HG          -2.2137    23.7619    51.6181 H            1 RDF501   0.0000
    54 HD11        -3.1963    22.3736    53.2825 H            1 RDF501   0.0000
    55 HD12        -3.3107    21.6318    51.8322 H            1 RDF501   0.0000
    56 HD13        -2.1620    21.1701    52.8971 H            1 RDF501   0.0000
    57 HD21        -1.1345    23.7823    53.7637 H            1 RDF501   0.0000
    58 HD22        -0.2366    22.4909    53.3245 H            1 RDF501   0.0000
    59 HD23        -0.0084    23.9317    52.5905 H            1 RDF501   0.0000
    60 H23         -0.6031    23.5082    48.0491 H            1 RDF501   0.0000
    61 HA1         -2.7823    25.2085    47.4759 H            1 RDF501   0.0000
    62 HB11        -1.7898    26.2063    49.4576 H            1 RDF501   0.0000
    63 HB12        -1.9242    27.1997    48.1685 H            1 RDF501   0.0000
    64 H27          0.8156    24.9802    49.6453 H            1 RDF501   0.0000
    65 HE1          3.0761    26.0730    49.4247 H            1 RDF501   0.0000
    66 HE3         -0.6506    29.0490    47.2109 H            1 RDF501   0.0000
    67 HZ2          4.0099    28.4363    48.3472 H            1 RDF501   0.0000
    68 HZ3          1.0146    30.6505    46.5023 H            1 RDF501   0.0000
    69 HH2          3.3206    30.3847    47.0938 H            1 RDF501   0.0000
@<TRIPOS>BOND
     1    1    2       1
     2    1    3       1
     3    1   10       1
     4    2   12       1
     5    3    4       1
     6    3    5       1
     7    5    6       1
     8    5    7       1
     9    7    8       1
    10    7    9       1
    11    9   10       1
    12    9   11       1
    13   12   13      ar
    14   12   14      ar
    15   12   15       1
    16   15   16       1
    17   16   17       1
    18   16   19       1
    19   17   18       2
    20   17   23      am
    21   19   20       1
    22   20   21       1
    23   20   22       1
    24   23   24       1
    25   24   25       1
    26   24   27       1
    27   25   26      ar
    28   25   37      ar
    29   27   28       1
    30   28   29       2
    31   28   30       1
    32   29   31       1
    33   30   32      ar
    34   30   33      ar
    35   31   32       1
    36   32   34      ar
    37   33   35      ar
    38   34   36      ar
    39   35   36      ar
    40    1   38       1
    41    3   39       1
    42    4   40       1
    43    5   41       1
    44    6   42       1
    45    7   43       1
    46    8   44       1
    47    9   45       1
    48   11   46       1
    49   11   47       1
    50   11   48       1
    51   36   69       1
    52   15   49       1
    53   16   50       1
    54   19   51       1
    55   19   52       1
    56   20   53       1
    57   21   54       1
    58   21   55       1
    59   21   56       1
    60   22   57       1
    61   22   58       1
    62   22   59       1
    63   23   60       1
    64   24   61       1
    65   35   68       1
    66   27   62       1
    67   27   63       1
    68   29   64       1
    69   31   65       1
    70   33   66       1
    71   34   67       1
@<TRIPOS>SUBSTRUCTURE
     1 RDF501      1 GROUP             4 A     RDF     0 **** RDF A 501
