@<TRIPOS>MOLECULE
1ve3_SAM_1_ligand
   50    52     1     0     0
SMALL
NO_CHARGES


@<TRIPOS>ATOM
     1 N           26.9130    13.2930    89.9550 N.4          1 SAM302   1.0000
     2 CA          26.4450    13.2970    88.5390 C.3          1 SAM302   0.0000
     3 C           25.3270    14.3240    88.3760 C.2          1 SAM302   0.0000
     4 O           25.2950    14.9960    87.3370 O.co2        1 SAM302   0.0000
     5 OXT         24.5060    14.3950    89.3430 O.co2        1 SAM302  -1.0000
     6 CB          25.9150    11.9350    88.2240 C.3          1 SAM302   0.0000
     7 CG          25.9540    11.6050    86.8150 C.3          1 SAM302   0.0000
     8 SD          25.3010     9.9380    86.4020 S.3          1 SAM302   1.0000
     9 CE          23.6890     9.9370    86.8760 C.3          1 SAM302   0.0000
    10 C5'         26.3290     8.7950    87.3360 C.3          1 SAM302   0.0000
    11 C4'         27.9160     8.8120    87.0380 C.3          1 SAM302   0.0000
    12 O4'         28.5800     7.8250    87.9010 O.3          1 SAM302   0.0000
    13 C3'         28.2820     8.3290    85.6430 C.3          1 SAM302   0.0000
    14 O3'         28.7940     9.6450    85.1000 O.3          1 SAM302   0.0000
    15 C2'         29.4630     7.4220    85.6950 C.3          1 SAM302   0.0000
    16 O2'         30.5340     7.4780    84.8050 O.3          1 SAM302   0.0000
    17 C1'         29.7850     7.5170    87.2330 C.3          1 SAM302   0.0000
    18 N9          30.3800     6.2840    87.7640 N.pl3        1 SAM302   0.0000
    19 C8          29.9810     4.9490    87.7100 C.2          1 SAM302   0.0000
    20 N7          30.7990     4.1270    88.3210 N.2          1 SAM302   0.0000
    21 C5          31.7850     4.9310    88.8030 C.ar         1 SAM302   0.0000
    22 C6          33.0060     4.6960    89.5740 C.ar         1 SAM302   0.0000
    23 N6          33.3810     3.4690    89.9730 N.pl3        1 SAM302   0.0000
    24 N1          33.8310     5.7890    89.9170 N.ar         1 SAM302   0.0000
    25 C2          33.4820     7.0570    89.5270 C.ar         1 SAM302   0.0000
    26 N3          32.3720     7.3840    88.8090 N.ar         1 SAM302   0.0000
    27 C4          31.5510     6.2790    88.4710 C.ar         1 SAM302   0.0000
    28 H1          26.3793    12.6305    90.4806 H            1 SAM302   0.0000
    29 H2          27.8803    13.0413    89.9857 H            1 SAM302   0.0000
    30 HA          27.2050    13.5184    87.9279 H            1 SAM302   0.0000
    31 HB1         24.9652    11.8870    88.5330 H            1 SAM302   0.0000
    32 HB2         26.4617    11.2611    88.7210 H            1 SAM302   0.0000
    33 HG1         26.9051    11.6519    86.5098 H            1 SAM302   0.0000
    34 HG2         25.4114    12.2839    86.3204 H            1 SAM302   0.0000
    35 HE1         23.2822     9.0464    86.6724 H            1 SAM302   0.0000
    36 HE2         23.6304    10.1134    87.8586 H            1 SAM302   0.0000
    37 HE3         23.1950    10.6505    86.3791 H            1 SAM302   0.0000
    38 H5'1        25.9979     7.8705    87.1472 H            1 SAM302   0.0000
    39 H5'2        26.2035     9.0024    88.3062 H            1 SAM302   0.0000
    40 H4'         28.2911     9.7247    87.2001 H            1 SAM302   0.0000
    41 H3'         27.5091     7.9550    85.1304 H            1 SAM302   0.0000
    42 H15         29.5653     9.9570    85.6548 H            1 SAM302   0.0000
    43 H2'         29.0822     6.5054    85.5735 H            1 SAM302   0.0000
    44 H17         31.2318     8.0991    85.1618 H            1 SAM302   0.0000
    45 H1'         30.4291     8.2683    87.3770 H            1 SAM302   0.0000
    46 H19         29.1475     4.6465    87.2477 H            1 SAM302   0.0000
    47 H20         34.2232     3.3499    90.4988 H            1 SAM302   0.0000
    48 H21         32.8179     2.6750    89.7442 H            1 SAM302   0.0000
    49 H22         34.0932     7.8029    89.7918 H            1 SAM302   0.0000
    50 H23         26.7932    14.2046    90.3482 H            1 SAM302   0.0000
@<TRIPOS>BOND
     1    1    2       1
     2    2    3       1
     3    2    6       1
     4    3    4      ar
     5    3    5      ar
     6    6    7       1
     7    7    8       1
     8    8    9       1
     9    8   10       1
    10   10   11       1
    11   11   12       1
    12   11   13       1
    13   12   17       1
    14   13   14       1
    15   13   15       1
    16   15   16       1
    17   15   17       1
    18   17   18       1
    19   18   19       1
    20   18   27       1
    21   19   20       2
    22   20   21       1
    23   21   22      ar
    24   21   27      ar
    25   22   23       1
    26   22   24      ar
    27   24   25      ar
    28   25   26      ar
    29   26   27      ar
    30    1   28       1
    31    1   29       1
    32    2   30       1
    33    1   50       1
    34    6   31       1
    35    6   32       1
    36    7   33       1
    37    7   34       1
    38    9   35       1
    39    9   36       1
    40    9   37       1
    41   10   38       1
    42   10   39       1
    43   11   40       1
    44   13   41       1
    45   14   42       1
    46   15   43       1
    47   16   44       1
    48   17   45       1
    49   19   46       1
    50   23   47       1
    51   23   48       1
    52   25   49       1
@<TRIPOS>SUBSTRUCTURE
     1 SAM302      1 GROUP             4 A     SAM     0 **** SAM A 302
