@<TRIPOS>MOLECULE
1s16_ANP_1_ligand
   44    46     1     0     0
SMALL
NO_CHARGES


@<TRIPOS>ATOM
     1 PG          18.8100    53.6960    -7.2840 P.3          1 ANP1500   0.0000
     2 O1G         20.2510    53.6930    -7.8100 O.co2        1 ANP1500   0.0000
     3 O2G         18.6590    52.6030    -6.2320 O.co2        1 ANP1500  -1.0000
     4 O3G         18.5550    55.0050    -6.6180 O.co2        1 ANP1500  -1.0000
     5 PB          16.1740    53.8720    -8.5490 P.3          1 ANP1500   0.0000
     6 O1B         15.5130    53.1610    -9.6890 O.co2        1 ANP1500   0.0000
     7 O2B         15.5190    53.4380    -7.2080 O.co2        1 ANP1500  -1.0000
     8 N3B         17.7340    53.4750    -8.4780 N.3          1 ANP1500   0.0000
     9 PA          16.2650    56.4510    -9.8090 P.3          1 ANP1500   0.0000
    10 O1A         16.3150    57.8750    -9.2910 O.co2        1 ANP1500   0.0000
    11 O2A         17.5510    56.0850   -10.4570 O.co2        1 ANP1500  -1.0000
    12 O3A         15.9140    55.4490    -8.5820 O.3          1 ANP1500   0.0000
    13 O5'         15.1390    56.3310   -10.8620 O.3          1 ANP1500   0.0000
    14 C5'         13.7910    56.6690   -10.4280 C.3          1 ANP1500   0.0000
    15 C4'         12.6900    55.8530   -11.1050 C.3          1 ANP1500   0.0000
    16 O4'         12.5400    56.2590   -12.4600 O.3          1 ANP1500   0.0000
    17 C3'         13.0690    54.3580   -11.1680 C.3          1 ANP1500   0.0000
    18 O3'         12.7550    53.6860    -9.8990 O.3          1 ANP1500   0.0000
    19 C2'         12.1220    53.8980   -12.2930 C.3          1 ANP1500   0.0000
    20 O2'         10.7460    53.8600   -11.8500 O.3          1 ANP1500   0.0000
    21 C1'         12.3170    55.0940   -13.2470 C.3          1 ANP1500   0.0000
    22 N9          13.2230    54.9080   -14.3880 N.pl3        1 ANP1500   0.0000
    23 C8          14.5340    55.3240   -14.3960 C.2          1 ANP1500   0.0000
    24 N7          15.1640    54.9070   -15.5090 N.2          1 ANP1500   0.0000
    25 C5          14.2900    54.2200   -16.2420 C.ar         1 ANP1500   0.0000
    26 C6          14.2980    53.5260   -17.4780 C.ar         1 ANP1500   0.0000
    27 N6          15.4510    53.4650   -18.2500 N.pl3        1 ANP1500   0.0000
    28 N1          13.1430    52.9050   -17.9130 N.ar         1 ANP1500   0.0000
    29 C2          11.9220    52.8850   -17.2550 C.ar         1 ANP1500   0.0000
    30 N3          11.8200    53.5410   -16.0350 N.ar         1 ANP1500   0.0000
    31 C4          12.9790    54.2000   -15.5250 C.ar         1 ANP1500   0.0000
    32 H3B         18.1410    53.9412    -9.2635 H            1 ANP1500   0.0000
    33 H5'1        13.6312    57.6360   -10.6263 H            1 ANP1500   0.0000
    34 H5'2        13.7321    56.5169    -9.4414 H            1 ANP1500   0.0000
    35 H4'         11.8263    55.9680   -10.6144 H            1 ANP1500   0.0000
    36 H3'         14.0281    54.2330   -11.4218 H            1 ANP1500   0.0000
    37 H6          13.5925    53.3046    -9.5076 H            1 ANP1500   0.0000
    38 H2'         12.4124    53.0337   -12.7037 H            1 ANP1500   0.0000
    39 H8          10.1615    53.5582   -12.6032 H            1 ANP1500   0.0000
    40 H1'         11.4174    55.2368   -13.6598 H            1 ANP1500   0.0000
    41 H10         14.9617    55.8642   -13.6713 H            1 ANP1500   0.0000
    42 H11         15.4446    52.9724   -19.1203 H            1 ANP1500   0.0000
    43 H12         16.2876    53.9136   -17.9356 H            1 ANP1500   0.0000
    44 H13         11.1350    52.4102   -17.6491 H            1 ANP1500   0.0000
@<TRIPOS>BOND
     1    1    2      ar
     2    1    3      ar
     3    1    4      ar
     4    1    8       1
     5    5    6      ar
     6    5    7      ar
     7    5    8       1
     8    5   12       1
     9    9   10      ar
    10    9   11      ar
    11    9   12       1
    12    9   13       1
    13   13   14       1
    14   14   15       1
    15   15   16       1
    16   15   17       1
    17   16   21       1
    18   17   18       1
    19   17   19       1
    20   19   20       1
    21   19   21       1
    22   21   22       1
    23   22   23       1
    24   22   31       1
    25   23   24       2
    26   24   25       1
    27   25   26      ar
    28   25   31      ar
    29   26   27       1
    30   26   28      ar
    31   28   29      ar
    32   29   30      ar
    33   30   31      ar
    34   29   44       1
    35   27   43       1
    36   27   42       1
    37    8   32       1
    38   23   41       1
    39   14   33       1
    40   14   34       1
    41   15   35       1
    42   17   36       1
    43   18   37       1
    44   19   38       1
    45   20   39       1
    46   21   40       1
@<TRIPOS>SUBSTRUCTURE
     1 ANP1500     1 GROUP             4 A     ANP     0 **** ANP A1500
