@<TRIPOS>MOLECULE
./coach420/1cqf/ligand.pdb
 100 102 0 0 0
SMALL
GASTEIGER

@<TRIPOS>ATOM
      1  C1       -10.1270   15.8810   15.9800 C.3   180  GLA180      0.2695
      2  C2       -10.8490   15.3050   14.7540 C.3   180  GLA180      0.2406
      3  C3        -9.8650   14.5200   13.8700 C.3   180  GLA180      0.2198
      4  C4        -8.6510   15.3930   13.5280 C.3   180  GLA180      0.2144
      5  C5        -8.0360   15.9300   14.8220 C.3   180  GLA180      0.1835
      6  C6        -6.8250   16.8260   14.6250 C.3   180  GLA180      0.2142
      7  O2       -11.9030   14.4480   15.1760 O.3   180  GLA180     -0.2149
      8  O3       -10.5110   14.1000   12.6740 O.3   180  GLA180     -0.2174
      9  O4        -9.0510   16.4730   12.6960 O.3   180  GLA180     -0.2176
     10  O5        -9.0250   16.6710   15.5600 O.3   180  GLA180     -0.3256
     11  O6        -7.1880   18.1910   14.5190 O.3   180  GLA180     -0.2176
     12  C1        -9.0000   12.5940   19.3070 C.3   181  GAL181      0.2695
     13  C2        -7.9550   13.2630   18.4110 C.3   181  GAL181      0.2404
     14  C3        -8.0560   14.7670   18.5700 C.3   181  GAL181      0.2167
     15  C4        -9.4670   15.1890   18.1860 C.3   181  GAL181      0.1804
     16  C5       -10.4740   14.4710   19.0790 C.3   181  GAL181      0.1803
     17  C6       -11.8980   14.8000   18.6720 C.3   181  GAL181      0.2141
     18  O2        -6.6530   12.8270   18.7690 O.3   181  GAL181     -0.2149
     19  O3        -7.1020   15.4090   17.7370 O.3   181  GAL181     -0.2175
     20  O4        -9.7230   14.8340   16.8150 O.3   181  GAL181     -0.3257
     21  O5       -10.3170   13.0430   18.9550 O.3   181  GAL181     -0.3257
     22  O6       -12.8310   13.9930   19.3730 O.3   181  GAL181     -0.2176
     23  C2       -10.5220    8.1280   20.6270 C.3   182  BGC182      0.2433
     24  C3       -10.1610    9.1580   19.5570 C.3   182  BGC182      0.2168
     25  C4        -9.5150   10.4040   20.1790 C.3   182  BGC182      0.1804
     26  C5        -8.4020   10.0360   21.1820 C.3   182  BGC182      0.1804
     27  C6        -7.9580   11.2390   22.0070 C.3   182  BGC182      0.2141
     28  C1        -9.2900    7.8390   21.4800 C.3   182  BGC182      0.3023
     29  O1        -9.5990    6.9080   22.4620 O.3   182  BGC182     -0.1869
     30  O2       -10.9780    6.9290   20.0120 O.3   182  BGC182     -0.2148
     31  O3       -11.3340    9.5410   18.8490 O.3   182  BGC182     -0.2175
     32  O4        -8.9540   11.2190   19.1250 O.3   182  BGC182     -0.3257
     33  O5        -8.8650    9.0450   22.1200 O.3   182  BGC182     -0.3237
     34  O6        -6.8240   11.8750   21.4340 O.3   182  BGC182     -0.2176
     35  C2         2.1360   11.9120   10.1900 C.3   280  GLA280      0.2175
     36  C3         3.1940   11.2310   11.0620 C.3   280  GLA280      0.2175
     37  C4         4.0370   12.2820   11.7930 C.3   280  GLA280      0.2175
     38  C5         3.1100   13.2250   12.5640 C.3   280  GLA280      0.2175
     39  C6         3.8250   14.3380   13.3020 C.3   280  GLA280      0.2175
     40  O2         1.2770   10.9240    9.6300 O.3   280  GLA280     -0.2175
     41  O3         4.0260   10.4120   10.2540 O.3   280  GLA280     -0.2175
     42  O4         4.8080   13.0240   10.8580 O.3   280  GLA280     -0.2175
     43  O5         2.1700   13.8280   11.6550 O.3   280  GLA280     -0.2175
     44  O6         3.9280   15.4980   12.4990 O.3   280  GLA280     -0.2175
     45  C1        -1.5740   10.6120   14.1290 C.3   281  GAL281      0.2695
     46  C2        -0.3500   11.3980   14.5870 C.3   281  GAL281      0.2406
     47  C3        -0.4170   12.8250   14.0720 C.3   281  GAL281      0.2198
     48  C4        -0.5480   12.7840   12.5570 C.3   281  GAL281      0.2144
     49  C5        -1.7840   11.9870   12.1680 C.3   281  GAL281      0.1835
     50  C6        -1.8790   11.8510   10.6580 C.3   281  GAL281      0.2142
     51  O2        -0.2850   11.3950   16.0050 O.3   281  GAL281     -0.2149
     52  O3         0.7620   13.5250   14.4450 O.3   281  GAL281     -0.2174
     53  O4         0.6080   12.1450   11.9940 O.3   281  GAL281     -0.2176
     54  O5        -1.6970   10.6470   12.6990 O.3   281  GAL281     -0.3256
     55  O6        -3.0050   11.0780   10.2830 O.3   281  GAL281     -0.2176
     56  C2        -3.9430    6.5710   14.0080 C.3   282  BGC282      0.2433
     57  C3        -2.8340    7.5440   13.6250 C.3   282  BGC282      0.2168
     58  C4        -2.5750    8.5130   14.7820 C.3   282  BGC282      0.1804
     59  C5        -2.3570    7.7690   16.1080 C.3   282  BGC282      0.1804
     60  C6        -2.3790    8.7350   17.2800 C.3   282  BGC282      0.2141
     61  C1        -3.5150    5.8500   15.2760 C.3   282  BGC282      0.3023
     62  O1        -4.4570    4.8920   15.6310 O.3   282  BGC282     -0.1869
     63  O2        -4.1660    5.6340   12.9630 O.3   282  BGC282     -0.2148
     64  O3        -3.2080    8.2700   12.4620 O.3   282  BGC282     -0.2175
     65  O4        -1.3980    9.2890   14.4970 O.3   282  BGC282     -0.3257
     66  O5        -3.4050    6.8030   16.3400 O.3   282  BGC282     -0.3237
     67  O6        -1.5140    8.3010   18.3200 O.3   282  BGC282     -0.2176
     68  C2        -5.1830   20.9080   -0.5650 C.3   270  GLA270      0.2175
     69  C3        -5.6200   21.6940   -1.7950 C.3   270  GLA270      0.2175
     70  C4        -4.5000   22.6440   -2.2210 C.3   270  GLA270      0.2175
     71  C5        -3.1850   21.8850   -2.4250 C.3   270  GLA270      0.2175
     72  C6        -2.0370   22.8500   -2.5870 C.3   270  GLA270      0.2175
     73  O2        -6.2000   19.9860   -0.1980 O.3   270  GLA270     -0.2175
     74  O3        -6.7980   22.4300   -1.4970 O.3   270  GLA270     -0.2175
     75  O4        -4.3070   23.6410   -1.2340 O.3   270  GLA270     -0.2175
     76  O5        -2.8730   21.0830   -1.2660 O.3   270  GLA270     -0.2175
     77  O6        -1.3530   22.6450   -3.8070 O.3   270  GLA270     -0.2175
     78  C1        -4.7580   16.1230   -3.3450 C.3   271  GAL271      0.2695
     79  C2        -4.0760   17.3040   -4.0930 C.3   271  GAL271      0.2406
     80  C3        -2.8240   17.7780   -3.3360 C.3   271  GAL271      0.2198
     81  C4        -3.1810   18.0920   -1.8980 C.3   271  GAL271      0.2144
     82  C5        -3.7970   16.8440   -1.2830 C.3   271  GAL271      0.1835
     83  C6        -4.1380   17.0140    0.1740 C.3   271  GAL271      0.2142
     84  O2        -3.7140   16.9030   -5.4100 O.3   271  GAL271     -0.2149
     85  O3        -2.2490   18.9250   -3.9480 O.3   271  GAL271     -0.2174
     86  O4        -4.1190   19.1880   -1.8540 O.3   271  GAL271     -0.2176
     87  O5        -5.0050   16.4880   -1.9800 O.3   271  GAL271     -0.3256
     88  O6        -4.3670   15.7590    0.7770 O.3   271  GAL271     -0.2176
     89  C2        -8.8560   13.4600   -3.0600 C.3   272  BGC272      0.2433
     90  C3        -8.0550   14.7810   -3.1070 C.3   272  BGC272      0.2168
     91  C4        -6.6220   14.5610   -3.6580 C.3   272  BGC272      0.1804
     92  C5        -6.7340   13.7980   -4.9600 C.3   272  BGC272      0.1804
     93  C6        -5.4290   13.4740   -5.6530 C.3   272  BGC272      0.2141
     94  C1        -8.7810   12.7700   -4.3920 C.3   272  BGC272      0.3023
     95  O1        -9.4070   11.5310   -4.3060 O.3   272  BGC272     -0.1869
     96  O2       -10.2190   13.6870   -2.7470 O.3   272  BGC272     -0.2148
     97  O3        -7.9820   15.3180   -1.7990 O.3   272  BGC272     -0.2175
     98  O4        -5.9940   15.8390   -3.9270 O.3   272  BGC272     -0.3257
     99  O5        -7.4220   12.5530   -4.7400 O.3   272  BGC272     -0.3237
    100  O6        -4.6490   12.5710   -4.8890 O.3   272  BGC272     -0.2176
@<TRIPOS>BOND
     1     1     2    1
     2     1    10    1
     3     1    20    1
     4     2     3    1
     5     2     7    1
     6     3     8    1
     7     3     4    1
     8     4     9    1
     9     4     5    1
    10     5     6    1
    11     5    10    1
    12     6    11    1
    13    12    13    1
    14    12    21    1
    15    12    32    1
    16    13    14    1
    17    13    18    1
    18    14    19    1
    19    14    15    1
    20    15    20    1
    21    15    16    1
    22    16    17    1
    23    16    21    1
    24    17    22    1
    25    23    24    1
    26    23    30    1
    27    23    28    1
    28    24    31    1
    29    24    25    1
    30    25    32    1
    31    25    26    1
    32    26    27    1
    33    26    33    1
    34    27    34    1
    35    28    33    1
    36    28    29    1
    37    35    40    1
    38    35    36    1
    39    36    41    1
    40    36    37    1
    41    37    42    1
    42    37    38    1
    43    38    43    1
    44    38    39    1
    45    39    44    1
    46    45    54    1
    47    45    65    1
    48    45    46    1
    49    46    47    1
    50    46    51    1
    51    47    48    1
    52    47    52    1
    53    48    53    1
    54    48    49    1
    55    49    50    1
    56    49    54    1
    57    50    55    1
    58    56    63    1
    59    56    57    1
    60    56    61    1
    61    57    64    1
    62    57    58    1
    63    58    65    1
    64    58    59    1
    65    59    66    1
    66    59    60    1
    67    60    67    1
    68    61    62    1
    69    61    66    1
    70    68    69    1
    71    68    73    1
    72    69    70    1
    73    69    74    1
    74    70    71    1
    75    70    75    1
    76    71    72    1
    77    71    76    1
    78    72    77    1
    79    78    79    1
    80    78    98    1
    81    78    87    1
    82    79    84    1
    83    79    80    1
    84    80    85    1
    85    80    81    1
    86    81    86    1
    87    81    82    1
    88    82    87    1
    89    82    83    1
    90    83    88    1
    91    89    94    1
    92    89    90    1
    93    89    96    1
    94    90    91    1
    95    90    97    1
    96    91    92    1
    97    91    98    1
    98    92    93    1
    99    92    99    1
   100    93   100    1
   101    94    99    1
   102    94    95    1
