@<TRIPOS>MOLECULE
4nkw_PLO_4_ligand
   55    58     1     0     0
SMALL
NO_CHARGES


@<TRIPOS>ATOM
     1 C1          46.7680     7.5510    24.2070 C.3          1 PLO601   0.0000
     2 C2          45.7390     6.8750    25.0710 C.3          1 PLO601   0.0000
     3 C3          46.3040     6.1470    26.2470 C.3          1 PLO601   0.0000
     4 O3          45.2640     5.5230    26.9330 O.3          1 PLO601   0.0000
     5 C4          47.0230     7.0900    27.2480 C.3          1 PLO601   0.0000
     6 C5          48.1290     7.7400    26.3080 C.2          1 PLO601   0.0000
     7 C6          49.4470     7.7660    26.7710 C.2          1 PLO601   0.0000
     8 C7          50.5820     8.3330    26.0440 C.3          1 PLO601   0.0000
     9 C8          50.1500     9.0920    24.8640 C.3          1 PLO601   0.0000
    10 C9          49.0590     8.4580    24.0680 C.3          1 PLO601   0.0000
    11 C10         47.7320     8.3540    24.9080 C.3          1 PLO601   0.0000
    12 C11         48.8250     9.2050    22.7760 C.3          1 PLO601   0.0000
    13 C12         50.0460     9.4900    21.8960 C.3          1 PLO601   0.0000
    14 C13         51.2410     9.9550    22.7080 C.3          1 PLO601   0.0000
    15 C14         51.3900     9.0700    23.8960 C.3          1 PLO601   0.0000
    16 C15         52.6600     9.4990    24.5380 C.3          1 PLO601   0.0000
    17 C16         53.5430     9.7380    23.2610 C.3          1 PLO601   0.0000
    18 C17         52.5920     9.7260    22.0280 C.3          1 PLO601   0.0000
    19 C18         50.9990    11.4470    23.0420 C.3          1 PLO601   0.0000
    20 C19         47.0990     9.7300    25.1730 C.3          1 PLO601   0.0000
    21 C20         53.0610    10.6700    20.9170 C.2          1 PLO601   0.0000
    22 C21         52.8440    10.3550    19.4270 C.3          1 PLO601   0.0000
    23 O20         53.6410    11.6880    21.2050 O.2          1 PLO601   0.0000
    24 H1          46.2868     8.1421    23.5597 H            1 PLO601   0.0000
    25 H2          47.2637     6.8417    23.7058 H            1 PLO601   0.0000
    26 H3          45.2394     6.2178    24.5066 H            1 PLO601   0.0000
    27 H4          45.1070     7.5725    25.4088 H            1 PLO601   0.0000
    28 H5          46.9494     5.4538    25.9261 H            1 PLO601   0.0000
    29 H6          44.5367     5.2838    26.2898 H            1 PLO601   0.0000
    30 H7          47.4356     6.5795    28.0024 H            1 PLO601   0.0000
    31 H8          46.3999     7.7809    27.6145 H            1 PLO601   0.0000
    32 H9          49.6282     7.3658    27.6693 H            1 PLO601   0.0000
    33 H10         51.1814     7.5890    25.7486 H            1 PLO601   0.0000
    34 H11         51.0853     8.9438    26.6552 H            1 PLO601   0.0000
    35 H12         49.9096    10.0302    25.1129 H            1 PLO601   0.0000
    36 H13         49.3486     7.5292    23.8367 H            1 PLO601   0.0000
    37 H14         48.4111    10.0850    23.0089 H            1 PLO601   0.0000
    38 H15         48.1813     8.6677    22.2311 H            1 PLO601   0.0000
    39 H16         49.8081    10.2025    21.2359 H            1 PLO601   0.0000
    40 H17         50.2940     8.6530    21.4082 H            1 PLO601   0.0000
    41 H18         51.5103     8.1325    23.5695 H            1 PLO601   0.0000
    42 H19         53.0403     8.7831    25.1236 H            1 PLO601   0.0000
    43 H20         52.5422    10.3374    25.0702 H            1 PLO601   0.0000
    44 H21         54.2234     9.0103    23.1749 H            1 PLO601   0.0000
    45 H22         54.0065    10.6217    23.3265 H            1 PLO601   0.0000
    46 H23         52.5903     8.7978    21.6560 H            1 PLO601   0.0000
    47 H24         51.7662    11.7970    23.5795 H            1 PLO601   0.0000
    48 H25         50.9205    11.9701    22.1933 H            1 PLO601   0.0000
    49 H26         50.1540    11.5378    23.5689 H            1 PLO601   0.0000
    50 H27         47.7521    10.3089    25.6612 H            1 PLO601   0.0000
    51 H28         46.8586    10.1595    24.3025 H            1 PLO601   0.0000
    52 H29         46.2747     9.6165    25.7276 H            1 PLO601   0.0000
    53 H30         53.2221    11.0954    18.8713 H            1 PLO601   0.0000
    54 H31         53.3040     9.4974    19.1972 H            1 PLO601   0.0000
    55 H32         51.8648    10.2675    19.2440 H            1 PLO601   0.0000
@<TRIPOS>BOND
     1    1    2       1
     2    1   11       1
     3    2    3       1
     4    3    4       1
     5    3    5       1
     6    5    6       1
     7    6    7       2
     8    6   11       1
     9    7    8       1
    10    8    9       1
    11    9   10       1
    12    9   15       1
    13   10   11       1
    14   10   12       1
    15   11   20       1
    16   12   13       1
    17   13   14       1
    18   14   15       1
    19   14   18       1
    20   14   19       1
    21   15   16       1
    22   16   17       1
    23   17   18       1
    24   18   21       1
    25   21   22       1
    26   21   23       2
    27    1   24       1
    28    1   25       1
    29    2   26       1
    30    2   27       1
    31    3   28       1
    32    4   29       1
    33    5   30       1
    34    5   31       1
    35    7   32       1
    36    8   33       1
    37    8   34       1
    38    9   35       1
    39   10   36       1
    40   12   37       1
    41   12   38       1
    42   13   39       1
    43   13   40       1
    44   15   41       1
    45   16   42       1
    46   16   43       1
    47   17   44       1
    48   17   45       1
    49   18   46       1
    50   19   47       1
    51   19   48       1
    52   19   49       1
    53   20   50       1
    54   20   51       1
    55   20   52       1
    56   22   53       1
    57   22   54       1
    58   22   55       1
@<TRIPOS>SUBSTRUCTURE
     1 PLO601      1 GROUP             4 D     PLO     0 **** PLO D 601
