@<TRIPOS>MOLECULE
4ros_APR_1_ligand
   57    60     1     0     0
SMALL
NO_CHARGES


@<TRIPOS>ATOM
     1 N1          15.7840   -20.7880    -0.0090 N.ar         1 APR404   0.0000
     2 C2          15.6620   -21.8560    -0.8320 C.ar         1 APR404   0.0000
     3 N3          15.6040   -21.6930    -2.1470 N.ar         1 APR404   0.0000
     4 C4          15.6380   -20.4650    -2.6990 C.ar         1 APR404   0.0000
     5 C5          15.7770   -19.2530    -1.8640 C.ar         1 APR404   0.0000
     6 C6          15.8200   -19.5300    -0.4410 C.ar         1 APR404   0.0000
     7 N6          15.9490   -18.5300     0.4080 N.pl3        1 APR404   0.0000
     8 N7          15.8180   -18.1530    -2.6800 N.2          1 APR404   0.0000
     9 C8          15.6890   -18.6110    -3.9470 C.2          1 APR404   0.0000
    10 N9          15.5530   -19.9910    -3.9390 N.pl3        1 APR404   0.0000
    11 C1'         15.5000   -20.8430    -5.0780 C.3          1 APR404   0.0000
    12 C2'         14.6850   -20.2580    -6.1860 C.3          1 APR404   0.0000
    13 O2'         13.2760   -20.4180    -5.9490 O.3          1 APR404   0.0000
    14 C3'         15.2200   -21.0700    -7.3630 C.3          1 APR404   0.0000
    15 O3'         14.3170   -22.1620    -7.6500 O.3          1 APR404   0.0000
    16 O4'         16.8770   -21.0440    -5.5630 O.3          1 APR404   0.0000
    17 C4'         16.6370   -21.4960    -6.9050 C.3          1 APR404   0.0000
    18 C5'         17.6960   -20.9400    -7.8290 C.3          1 APR404   0.0000
    19 O5'         17.4250   -21.5210    -9.1040 O.3          1 APR404   0.0000
    20 PA          17.6180   -20.7400   -10.4530 P.3          1 APR404   0.0000
    21 O1A         17.0580   -19.3260   -10.2560 O.co2        1 APR404   0.0000
    22 O2A         17.0440   -21.5190   -11.5800 O.co2        1 APR404  -1.0000
    23 O3A         19.2100   -20.4550   -10.6250 O.3          1 APR404   0.0000
    24 PB          20.3130   -21.5520   -11.1790 P.3          1 APR404   0.0000
    25 O1B         19.7150   -22.8200   -10.6560 O.co2        1 APR404   0.0000
    26 O2B         20.6200   -21.3260   -12.6290 O.co2        1 APR404  -1.0000
    27 O5D         21.5210   -20.8720   -10.3210 O.3          1 APR404   0.0000
    28 C5D         21.5940   -21.0450    -8.9150 C.3          1 APR404   0.0000
    29 O4D         23.9310   -21.1040    -8.8200 O.3          1 APR404   0.0000
    30 O1D         25.3320   -20.8670   -10.6810 O.3          1 APR404   0.0000
    31 C1D         24.7980   -20.2110    -9.5110 C.3          1 APR404   0.0000
    32 O2D         24.7810   -17.7830   -10.0790 O.3          1 APR404   0.0000
    33 C2D         23.9780   -18.9920    -9.8900 C.3          1 APR404   0.0000
    34 O3D         23.5510   -18.1790    -7.7000 O.3          1 APR404   0.0000
    35 C3D         22.9680   -18.9400    -8.7480 C.3          1 APR404   0.0000
    36 C4D         22.8040   -20.4020    -8.3000 C.3          1 APR404   0.0000
    37 H1          15.6152   -22.7768    -0.4447 H            1 APR404   0.0000
    38 H2          15.9748   -17.5886     0.0716 H            1 APR404   0.0000
    39 H3          16.0210   -18.7127     1.3885 H            1 APR404   0.0000
    40 H4          15.6914   -18.0391    -4.7673 H            1 APR404   0.0000
    41 H1'         15.1113   -21.7253    -4.8125 H            1 APR404   0.0000
    42 H2'         14.9075   -19.2903    -6.3046 H            1 APR404   0.0000
    43 H7          13.1201   -21.2489    -5.4149 H            1 APR404   0.0000
    44 H3'         15.2941   -20.4802    -8.1671 H            1 APR404   0.0000
    45 H9          14.2417   -22.7523    -6.8463 H            1 APR404   0.0000
    46 H4'         16.6913   -22.4944    -6.9206 H            1 APR404   0.0000
    47 H5'1        18.6084   -21.1994    -7.5125 H            1 APR404   0.0000
    48 H5'2        17.6308   -19.9433    -7.8771 H            1 APR404   0.0000
    49 H5D1        21.6197   -22.0248    -8.7166 H            1 APR404   0.0000
    50 H5D2        20.7766   -20.6427    -8.5027 H            1 APR404   0.0000
    51 H1D         24.7263   -20.7044   -11.4599 H            1 APR404   0.0000
    52 H16         25.5475   -19.9372    -8.9083 H            1 APR404   0.0000
    53 H2D         24.6647   -17.4484   -11.0141 H            1 APR404   0.0000
    54 H18         23.4893   -19.1873   -10.7403 H            1 APR404   0.0000
    55 H3D         23.3164   -17.2141    -7.8184 H            1 APR404   0.0000
    56 H20         22.0976   -18.5478    -9.0457 H            1 APR404   0.0000
    57 H4D         22.7734   -20.4672    -7.3026 H            1 APR404   0.0000
@<TRIPOS>BOND
     1    1    2      ar
     2    1    6      ar
     3    2    3      ar
     4    3    4      ar
     5    4    5      ar
     6    4   10       1
     7    5    6      ar
     8    5    8       1
     9    6    7       1
    10    8    9       2
    11    9   10       1
    12   10   11       1
    13   11   12       1
    14   11   16       1
    15   12   13       1
    16   12   14       1
    17   14   15       1
    18   14   17       1
    19   16   17       1
    20   17   18       1
    21   18   19       1
    22   19   20       1
    23   20   21      ar
    24   20   22      ar
    25   20   23       1
    26   23   24       1
    27   24   25      ar
    28   24   26      ar
    29   24   27       1
    30   27   28       1
    31   28   36       1
    32   29   31       1
    33   29   36       1
    34   30   31       1
    35   31   33       1
    36   32   33       1
    37   33   35       1
    38   34   35       1
    39   35   36       1
    40    2   37       1
    41    7   38       1
    42    7   39       1
    43    9   40       1
    44   11   41       1
    45   12   42       1
    46   13   43       1
    47   14   44       1
    48   15   45       1
    49   17   46       1
    50   18   47       1
    51   18   48       1
    52   36   57       1
    53   35   56       1
    54   28   49       1
    55   28   50       1
    56   30   51       1
    57   31   52       1
    58   32   53       1
    59   33   54       1
    60   34   55       1
@<TRIPOS>SUBSTRUCTURE
     1 APR404      1 GROUP             4 A     APR     0 **** APR A 404
