@<TRIPOS>MOLECULE
3e49_IMD_2_ligand
    9     9     1     0     0
SMALL
NO_CHARGES


@<TRIPOS>ATOM
     1 N1          62.0430    41.1060    67.6630 N.2          1 IMD505   0.0000
     2 C2          61.5150    41.8280    66.6700 C.2          1 IMD505   0.0000
     3 N3          62.4190    42.7650    66.2970 N.pl3        1 IMD505   0.0000
     4 C4          63.5210    42.6320    67.0610 C.2          1 IMD505   0.0000
     5 C5          63.2780    41.5890    67.9300 C.2          1 IMD505   0.0000
     6 H1          60.6074    41.6985    66.2706 H            1 IMD505   0.0000
     7 H2          64.3539    43.1830    67.0081 H            1 IMD505   0.0000
     8 H3          63.9036    41.2500    68.6326 H            1 IMD505   0.0000
     9 H4          62.2900    43.4436    65.5739 H            1 IMD505   0.0000
@<TRIPOS>BOND
     1    1    2       2
     2    1    5       1
     3    2    3       1
     4    3    4       1
     5    4    5       2
     6    5    8       1
     7    2    6       1
     8    4    7       1
     9    3    9       1
@<TRIPOS>SUBSTRUCTURE
     1 IMD505      1 GROUP             4 C     IMD     0 **** IMD C 505
