@<TRIPOS>MOLECULE
1i8t_FAD_2_ligand
   84    89     1     0     0
SMALL
NO_CHARGES


@<TRIPOS>ATOM
     1 PA          -2.9120    15.1940    25.5720 P.3          1 FAD451   0.0000
     2 O1A         -3.4290    13.8930    25.1480 O.co2        1 FAD451   0.0000
     3 O2A         -3.8210    16.1300    25.9790 O.co2        1 FAD451  -1.0000
     4 O5B         -2.2140    14.7050    26.8380 O.3          1 FAD451   0.0000
     5 C5B         -1.4770    15.4940    27.8520 C.3          1 FAD451   0.0000
     6 C4B         -1.5130    14.6290    29.1770 C.3          1 FAD451   0.0000
     7 O4B         -0.7840    15.4150    30.2250 O.3          1 FAD451   0.0000
     8 C3B         -2.9470    14.3170    29.8170 C.3          1 FAD451   0.0000
     9 O3B         -3.1160    12.9750    30.1670 O.3          1 FAD451   0.0000
    10 C2B         -3.0210    15.3120    31.0150 C.3          1 FAD451   0.0000
    11 O2B         -3.8710    14.8620    32.0670 O.3          1 FAD451   0.0000
    12 C1B         -1.5970    15.3900    31.4380 C.3          1 FAD451   0.0000
    13 N9A         -1.2330    16.5910    32.1000 N.pl3        1 FAD451   0.0000
    14 C8A         -1.5050    17.8860    31.6940 C.2          1 FAD451   0.0000
    15 N7A         -1.0370    18.8050    32.5590 N.2          1 FAD451   0.0000
    16 C5A         -0.4320    18.0620    33.5710 C.ar         1 FAD451   0.0000
    17 C6A          0.2750    18.4590    34.8400 C.ar         1 FAD451   0.0000
    18 N6A          0.4440    19.7100    35.2400 N.pl3        1 FAD451   0.0000
    19 N1A          0.7510    17.3960    35.5970 N.ar         1 FAD451   0.0000
    20 C2A          0.5910    16.0760    35.2130 C.ar         1 FAD451   0.0000
    21 N3A         -0.0440    15.6170    34.0780 N.ar         1 FAD451   0.0000
    22 C4A         -0.5390    16.6460    33.2930 C.ar         1 FAD451   0.0000
    23 N1          -6.4070    13.2410    16.2560 N.2          1 FAD451   0.0000
    24 C2          -6.4720    12.4130    15.1900 C.2          1 FAD451   0.0000
    25 O2          -5.4890    12.0610    14.5800 O.2          1 FAD451   0.0000
    26 N3          -7.7370    11.8960    14.7160 N.pl3        1 FAD451   0.0000
    27 C4          -8.9480    12.2310    15.3380 C.2          1 FAD451   0.0000
    28 O4          -9.9850    11.7680    14.9040 O.2          1 FAD451   0.0000
    29 C4X         -8.8830    13.1420    16.4920 C.2          1 FAD451   0.0000
    30 N5         -10.0440    13.5350    17.1430 N.2          1 FAD451   0.0000
    31 C5X         -9.9350    14.4360    18.1960 C.ar         1 FAD451   0.0000
    32 C6         -11.1580    14.8660    18.8390 C.ar         1 FAD451   0.0000
    33 C7         -11.1420    15.8110    19.8670 C.ar         1 FAD451   0.0000
    34 C7M        -12.4400    16.2260    20.5230 C.3          1 FAD451   0.0000
    35 C8          -9.8640    16.3980    20.2940 C.ar         1 FAD451   0.0000
    36 C8M         -9.7650    17.4390    21.3710 C.3          1 FAD451   0.0000
    37 C9          -8.6640    15.9720    19.6820 C.ar         1 FAD451   0.0000
    38 C9A         -8.6770    14.9890    18.6540 C.ar         1 FAD451   0.0000
    39 N10         -7.4650    14.5120    17.9700 N.pl3        1 FAD451   0.0000
    40 C10         -7.5430    13.6360    16.9130 C.2          1 FAD451   0.0000
    41 C1'         -6.1390    15.0120    18.4250 C.3          1 FAD451   0.0000
    42 C2'         -5.5430    14.1950    19.6520 C.3          1 FAD451   0.0000
    43 O2'         -6.4320    14.2970    20.7610 O.3          1 FAD451   0.0000
    44 C3'         -4.2000    14.8240    19.9970 C.3          1 FAD451   0.0000
    45 O3'         -3.3480    14.6510    18.8610 O.3          1 FAD451   0.0000
    46 C4'         -3.5260    14.1500    21.2060 C.3          1 FAD451   0.0000
    47 O4'         -4.3630    14.2930    22.3600 O.3          1 FAD451   0.0000
    48 C5'         -2.2490    14.8720    21.4090 C.3          1 FAD451   0.0000
    49 O5'         -1.4110    14.2650    22.5570 O.3          1 FAD451   0.0000
    50 P           -0.7700    15.1550    23.5940 P.3          1 FAD451   0.0000
    51 O1P          0.0580    14.2470    24.4570 O.co2        1 FAD451   0.0000
    52 O2P         -0.1780    16.2780    22.9840 O.co2        1 FAD451  -1.0000
    53 O3P         -1.7930    15.7620    24.4810 O.3          1 FAD451   0.0000
    54 H5B1        -1.9238    16.3764    27.9994 H            1 FAD451   0.0000
    55 H5B2        -0.5327    15.6434    27.5587 H            1 FAD451   0.0000
    56 H4B         -1.0304    13.7675    29.0189 H            1 FAD451   0.0000
    57 H3B         -3.6528    14.5645    29.1532 H            1 FAD451   0.0000
    58 H5          -2.4232    12.7163    30.8401 H            1 FAD451   0.0000
    59 H2B         -3.3274    16.2075    30.6923 H            1 FAD451   0.0000
    60 H7          -3.5320    13.9897    32.4194 H            1 FAD451   0.0000
    61 H1B         -1.3580    14.5980    31.9997 H            1 FAD451   0.0000
    62 H8A         -1.9945    18.1134    30.8522 H            1 FAD451   0.0000
    63 H6A1         0.9246    19.9006    36.0960 H            1 FAD451   0.0000
    64 H6A2         0.0910    20.4641    34.6861 H            1 FAD451   0.0000
    65 H2A          0.9760    15.3826    35.8221 H            1 FAD451   0.0000
    66 H13         -7.7481    11.2844    13.9249 H            1 FAD451   0.0000
    67 H14        -12.0309    14.4792    18.5416 H            1 FAD451   0.0000
    68 H7M1       -12.2525    16.9044    21.2334 H            1 FAD451   0.0000
    69 H7M2       -13.0489    16.6224    19.8359 H            1 FAD451   0.0000
    70 H7M3       -12.8769    15.4256    20.9335 H            1 FAD451   0.0000
    71 H8M1        -8.8071    17.6960    21.4992 H            1 FAD451   0.0000
    72 H8M2       -10.2937    18.2451    21.1051 H            1 FAD451   0.0000
    73 H8M3       -10.1283    17.0694    22.2262 H            1 FAD451   0.0000
    74 H21         -7.7935    16.3670    19.9756 H            1 FAD451   0.0000
    75 H1'1        -6.2380    15.9685    18.6993 H            1 FAD451   0.0000
    76 H1'2        -5.4972    14.9491    17.6607 H            1 FAD451   0.0000
    77 H2'         -5.4184    13.2358    19.3983 H            1 FAD451   0.0000
    78 H25         -5.9104    14.2421    21.6125 H            1 FAD451   0.0000
    79 H3'         -4.3224    15.7994    20.1804 H            1 FAD451   0.0000
    80 H27         -2.6944    15.4065    18.8164 H            1 FAD451   0.0000
    81 H4'         -3.3545    13.1832    21.0164 H            1 FAD451   0.0000
    82 H29         -3.9254    13.8553    23.1455 H            1 FAD451   0.0000
    83 H5'1        -2.4502    15.8269    21.6273 H            1 FAD451   0.0000
    84 H5'2        -1.7165    14.8283    20.5637 H            1 FAD451   0.0000
@<TRIPOS>BOND
     1    1    2      ar
     2    1    3      ar
     3    1    4       1
     4    1   53       1
     5    4    5       1
     6    5    6       1
     7    6    7       1
     8    6    8       1
     9    7   12       1
    10    8    9       1
    11    8   10       1
    12   10   11       1
    13   10   12       1
    14   12   13       1
    15   13   14       1
    16   13   22       1
    17   14   15       2
    18   15   16       1
    19   16   17      ar
    20   16   22      ar
    21   17   18       1
    22   17   19      ar
    23   19   20      ar
    24   20   21      ar
    25   21   22      ar
    26   23   24       1
    27   23   40       2
    28   24   25       2
    29   24   26       1
    30   26   27       1
    31   27   28       2
    32   27   29       1
    33   29   30       2
    34   29   40       1
    35   30   31       1
    36   31   32      ar
    37   31   38      ar
    38   32   33      ar
    39   33   34       1
    40   33   35      ar
    41   35   36       1
    42   35   37      ar
    43   37   38      ar
    44   38   39       1
    45   39   40       1
    46   39   41       1
    47   41   42       1
    48   42   43       1
    49   42   44       1
    50   44   45       1
    51   44   46       1
    52   46   47       1
    53   46   48       1
    54   48   49       1
    55   49   50       1
    56   50   51      ar
    57   50   52      ar
    58   50   53       1
    59   48   84       1
    60    5   54       1
    61    5   55       1
    62    6   56       1
    63    8   57       1
    64    9   58       1
    65   10   59       1
    66   11   60       1
    67   12   61       1
    68   14   62       1
    69   18   63       1
    70   18   64       1
    71   20   65       1
    72   26   66       1
    73   32   67       1
    74   34   68       1
    75   34   69       1
    76   34   70       1
    77   36   71       1
    78   36   72       1
    79   36   73       1
    80   37   74       1
    81   41   75       1
    82   41   76       1
    83   42   77       1
    84   43   78       1
    85   44   79       1
    86   45   80       1
    87   46   81       1
    88   47   82       1
    89   48   83       1
@<TRIPOS>SUBSTRUCTURE
     1 FAD451      1 GROUP             4 B     FAD     0 **** FAD B 451
