@<TRIPOS>MOLECULE
3t2g_13P_1_ligand
   15    14     1     0     0
SMALL
NO_CHARGES


@<TRIPOS>ATOM
     1 P          -60.4620    28.7730    19.2080 P.3          1 13P410   0.0000
     2 O1P        -59.5150    27.8920    18.4190 O.co2        1 13P410   0.0000
     3 O2P        -59.8900    30.1450    19.4820 O.co2        1 13P410  -1.0000
     4 O3P        -61.1430    28.1350    20.4080 O.co2        1 13P410  -1.0000
     5 O1         -61.6420    29.0540    18.1370 O.3          1 13P410   0.0000
     6 C1         -62.4940    27.9880    17.6940 C.3          1 13P410   0.0000
     7 C2         -63.2940    28.4170    16.4960 C.2          1 13P410   0.0000
     8 O2         -63.2390    27.7640    15.4770 O.2          1 13P410   0.0000
     9 C3         -64.1460    29.6530    16.6040 C.3          1 13P410   0.0000
    10 O3         -64.6520    30.0530    15.3310 O.3          1 13P410   0.0000
    11 H1         -63.1182    27.7365    18.4337 H            1 13P410   0.0000
    12 H2         -61.9322    27.1979    17.4488 H            1 13P410   0.0000
    13 H3         -63.5939    30.3961    16.9822 H            1 13P410   0.0000
    14 H4         -64.9151    29.4650    17.2148 H            1 13P410   0.0000
    15 H5         -65.2121    30.8745    15.4381 H            1 13P410   0.0000
@<TRIPOS>BOND
     1    1    2      ar
     2    1    3      ar
     3    1    4      ar
     4    1    5       1
     5    5    6       1
     6    6    7       1
     7    7    8       2
     8    7    9       1
     9    9   10       1
    10   10   15       1
    11    9   14       1
    12    6   11       1
    13    6   12       1
    14    9   13       1
@<TRIPOS>SUBSTRUCTURE
     1 13P410      1 GROUP             4 A     13P     0 **** 13P A 410
