@<TRIPOS>MOLECULE
4yig_URA_1_ligand
   12    12     1     0     0
SMALL
NO_CHARGES


@<TRIPOS>ATOM
     1 N1         -53.9280    13.1040   -23.5300 N.pl3        1 URA301   0.0000
     2 C2         -52.7620    12.7740   -24.1000 C.2          1 URA301   0.0000
     3 O2         -52.6480    12.8610   -25.3500 O.2          1 URA301   0.0000
     4 N3         -51.7270    12.3450   -23.3330 N.pl3        1 URA301   0.0000
     5 C4         -51.8140    12.2490   -21.9780 C.2          1 URA301   0.0000
     6 O4         -50.8760    11.8650   -21.2090 O.2          1 URA301   0.0000
     7 C5         -53.0010    12.5950   -21.3940 C.2          1 URA301   0.0000
     8 C6         -54.0600    13.0190   -22.2050 C.2          1 URA301   0.0000
     9 H1         -54.6945    13.4120   -24.0936 H            1 URA301   0.0000
    10 H2         -50.8695    12.0903   -23.7799 H            1 URA301   0.0000
    11 H3         -53.1109    12.5458   -20.4013 H            1 URA301   0.0000
    12 H4         -54.9331    13.2631   -21.7829 H            1 URA301   0.0000
@<TRIPOS>BOND
     1    1    2       1
     2    1    8       1
     3    2    3       2
     4    2    4       1
     5    4    5       1
     6    5    6       2
     7    5    7       1
     8    7    8       2
     9    1    9       1
    10    4   10       1
    11    7   11       1
    12    8   12       1
@<TRIPOS>SUBSTRUCTURE
     1 URA301      1 GROUP             4 A     URA     0 **** URA A 301
