@<TRIPOS>MOLECULE
3two_NDP_1_ligand
   73    77     1     0     0
SMALL
NO_CHARGES


@<TRIPOS>ATOM
     1 PA          32.7740    10.3230    42.2290 P.3          1 NDP601   0.0000
     2 O1A         33.4260    11.6620    42.2240 O.co2        1 NDP601   0.0000
     3 O2A         31.3210     9.9320    41.8950 O.co2        1 NDP601  -1.0000
     4 O5B         32.2990    10.4740    43.7560 O.3          1 NDP601   0.0000
     5 C5B         33.1210    10.8590    44.9470 C.3          1 NDP601   0.0000
     6 C4B         32.2790    11.5340    46.0220 C.3          1 NDP601   0.0000
     7 O4B         33.0940    11.9780    47.1880 O.3          1 NDP601   0.0000
     8 C3B         31.7010    12.8680    45.4160 C.3          1 NDP601   0.0000
     9 O3B         30.2810    12.9680    45.6860 O.3          1 NDP601   0.0000
    10 C2B         32.4300    14.0020    46.2010 C.3          1 NDP601   0.0000
    11 O2B         31.5440    15.0890    46.3910 O.3          1 NDP601   0.0000
    12 C1B         32.6860    13.3460    47.5700 C.3          1 NDP601   0.0000
    13 N9A         33.8550    13.8260    48.2960 N.pl3        1 NDP601   0.0000
    14 C8A         35.0160    14.2460    47.7460 C.2          1 NDP601   0.0000
    15 N7A         35.8620    14.5230    48.7440 N.2          1 NDP601   0.0000
    16 C5A         35.2720    14.2620    49.9080 C.ar         1 NDP601   0.0000
    17 C6A         35.6640    14.3950    51.2470 C.ar         1 NDP601   0.0000
    18 N6A         36.8860    14.8430    51.6320 N.pl3        1 NDP601   0.0000
    19 N1A         34.8000    14.0330    52.1890 N.ar         1 NDP601   0.0000
    20 C2A         33.5630    13.6030    51.8950 C.ar         1 NDP601   0.0000
    21 N3A         33.1610    13.4900    50.6330 N.ar         1 NDP601   0.0000
    22 C4A         34.0010    13.7980    49.6180 C.ar         1 NDP601   0.0000
    23 O3          33.7330     9.1220    42.6190 O.3          1 NDP601   0.0000
    24 PN          33.4350     7.5690    42.3980 P.3          1 NDP601   0.0000
    25 O1N         32.3260     7.1360    43.3580 O.co2        1 NDP601   0.0000
    26 O2N         33.3960     7.1400    40.9100 O.co2        1 NDP601  -1.0000
    27 O5D         34.8050     6.9120    42.9070 O.3          1 NDP601   0.0000
    28 C5D         35.3490     7.4520    44.1620 C.3          1 NDP601   0.0000
    29 C4D         36.7590     6.8620    44.4230 C.3          1 NDP601   0.0000
    30 O4D         36.6070     5.4310    44.3800 O.3          1 NDP601   0.0000
    31 C3D         37.7930     7.2080    43.4060 C.3          1 NDP601   0.0000
    32 O3D         39.0450     7.4300    44.0930 O.3          1 NDP601   0.0000
    33 C2D         37.8390     5.9470    42.5600 C.3          1 NDP601   0.0000
    34 O2D         39.0810     5.7860    41.8660 O.3          1 NDP601   0.0000
    35 C1D         37.7210     4.8940    43.6490 C.3          1 NDP601   0.0000
    36 N1N         37.3650     3.5500    43.0990 N.ar         1 NDP601   1.0000
    37 C2N         38.0040     2.4410    43.7110 C.ar         1 NDP601   0.0000
    38 C3N         37.7540     1.1700    43.2680 C.ar         1 NDP601   0.0000
    39 C7N         38.3770    -0.0190    43.9880 C.2          1 NDP601   0.0000
    40 O7N         38.2538    -1.1885    43.5737 O.2          1 NDP601   0.0000
    41 N7N         38.8585     0.2610    45.1582 N.am         1 NDP601   0.0000
    42 C4N         36.8110     1.0040    42.2040 C.ar         1 NDP601   0.0000
    43 C5N         36.1370     2.1040    41.6210 C.ar         1 NDP601   0.0000
    44 C6N         36.4080     3.3950    42.0510 C.ar         1 NDP601   0.0000
    45 P2B         31.9720    16.6040    46.2330 P.3          1 NDP601   0.0000
    46 O1X         30.8890    17.1690    45.2220 O.co2        1 NDP601   0.0000
    47 O2X         32.0680    17.2990    47.5440 O.co2        1 NDP601  -1.0000
    48 O3X         33.4110    16.5870    45.4910 O.co2        1 NDP601  -1.0000
    49 H5B1        33.8389    11.4906    44.6542 H            1 NDP601   0.0000
    50 H5B2        33.5381    10.0357    45.3321 H            1 NDP601   0.0000
    51 H4B         31.5379    10.9318    46.3190 H            1 NDP601   0.0000
    52 H3B         31.8875    12.9299    44.4355 H            1 NDP601   0.0000
    53 H5          30.1010    13.7923    46.2228 H            1 NDP601   0.0000
    54 H2B         33.2793    14.2828    45.7539 H            1 NDP601   0.0000
    55 H1B         31.8660    13.3447    48.1423 H            1 NDP601   0.0000
    56 H8A         35.2079    14.3338    46.7685 H            1 NDP601   0.0000
    57 H6A1        37.1081    14.9165    52.6043 H            1 NDP601   0.0000
    58 H6A2        37.5642    15.0996    50.9434 H            1 NDP601   0.0000
    59 H2A         32.9350    13.3643    52.6357 H            1 NDP601   0.0000
    60 H5D1        34.7422     7.2080    44.9185 H            1 NDP601   0.0000
    61 H5D2        35.4135     8.4476    44.0942 H            1 NDP601   0.0000
    62 H4D         37.0755     7.1385    45.3304 H            1 NDP601   0.0000
    63 H3D         37.5243     8.0046    42.8645 H            1 NDP601   0.0000
    64 H16         39.5906     8.0962    43.5846 H            1 NDP601   0.0000
    65 H2D         37.0637     5.9050    41.9298 H            1 NDP601   0.0000
    66 H18         38.9236     5.2912    41.0114 H            1 NDP601   0.0000
    67 H1D         38.5459     4.8539    44.2128 H            1 NDP601   0.0000
    68 H2N         38.6395     2.5883    44.4689 H            1 NDP601   0.0000
    69 H7N1        39.0062    -0.4688    45.8257 H            1 NDP601   0.0000
    70 H7N2        39.0823     1.2067    45.3936 H            1 NDP601   0.0000
    71 H4N         36.6226     0.0833    41.8622 H            1 NDP601   0.0000
    72 H5N         35.4640     1.9502    40.8975 H            1 NDP601   0.0000
    73 H6N         35.9511     4.1855    41.6431 H            1 NDP601   0.0000
@<TRIPOS>BOND
     1    1    2      ar
     2    1    3      ar
     3    1    4       1
     4    1   23       1
     5    4    5       1
     6    5    6       1
     7    6    7       1
     8    6    8       1
     9    7   12       1
    10    8    9       1
    11    8   10       1
    12   10   11       1
    13   10   12       1
    14   11   45       1
    15   12   13       1
    16   13   14       1
    17   13   22       1
    18   14   15       2
    19   15   16       1
    20   16   17      ar
    21   16   22      ar
    22   17   18       1
    23   17   19      ar
    24   19   20      ar
    25   20   21      ar
    26   21   22      ar
    27   23   24       1
    28   24   25      ar
    29   24   26      ar
    30   24   27       1
    31   27   28       1
    32   28   29       1
    33   29   30       1
    34   29   31       1
    35   30   35       1
    36   31   32       1
    37   31   33       1
    38   33   34       1
    39   33   35       1
    40   35   36       1
    41   36   37      ar
    42   36   44      ar
    43   37   38      ar
    44   38   39       1
    45   38   42      ar
    46   39   40       2
    47   39   41      am
    48   42   43      ar
    49   43   44      ar
    50   45   46      ar
    51   45   47      ar
    52   45   48      ar
    53   43   72       1
    54    5   49       1
    55    5   50       1
    56    6   51       1
    57    8   52       1
    58    9   53       1
    59   10   54       1
    60   12   55       1
    61   14   56       1
    62   18   57       1
    63   18   58       1
    64   20   59       1
    65   44   73       1
    66   28   60       1
    67   28   61       1
    68   29   62       1
    69   31   63       1
    70   32   64       1
    71   33   65       1
    72   34   66       1
    73   35   67       1
    74   37   68       1
    75   41   69       1
    76   41   70       1
    77   42   71       1
@<TRIPOS>SUBSTRUCTURE
     1 NDP601      1 GROUP             4 A     NDP     0 **** NDP A 601
