@<TRIPOS>MOLECULE
2tsr_D16_2_ligand
   52    54     1     0     0
SMALL
NO_CHARGES


@<TRIPOS>ATOM
     1 N1           2.3170    19.0350    22.3910 N.2          1 D16409   0.0000
     2 C2           2.6150    20.3630    22.8710 C.2          1 D16409   0.0000
     3 CM2          1.5480    21.4210    22.9320 C.3          1 D16409   0.0000
     4 N3           3.9430    20.6650    23.2950 N.pl3        1 D16409   0.0000
     5 C4           5.0000    19.7070    23.2660 C.2          1 D16409   0.0000
     6 O4           6.1330    19.9690    23.6330 O.2          1 D16409   0.0000
     7 C4A          4.6250    18.3210    22.7520 C.ar         1 D16409   0.0000
     8 C5           5.5600    17.2790    22.6770 C.ar         1 D16409   0.0000
     9 C6           5.2490    15.9600    22.2090 C.ar         1 D16409   0.0000
    10 C7           3.8910    15.7120    21.7900 C.ar         1 D16409   0.0000
    11 C8           2.8990    16.7500    21.8470 C.ar         1 D16409   0.0000
    12 C8A          3.2880    18.0280    22.3270 C.ar         1 D16409   0.0000
    13 C9           6.3610    14.8450    22.1830 C.3          1 D16409   0.0000
    14 N10          7.3630    14.8360    23.3760 N.pl3        1 D16409   0.0000
    15 C11          5.8190    13.8040    26.8740 C.2          1 D16409   0.0000
    16 S13          5.3140    14.3130    25.2860 S.3          1 D16409   0.0000
    17 C14          6.9460    14.5160    24.7310 C.2          1 D16409   0.0000
    18 C15          7.7830    14.2360    25.7730 C.2          1 D16409   0.0000
    19 C16          7.1710    13.8150    26.9620 C.2          1 D16409   0.0000
    20 C            4.7310    13.4070    27.9050 C.2          1 D16409   0.0000
    21 O            3.5400    13.3570    27.5230 O.2          1 D16409   0.0000
    22 N            5.1510    12.9670    29.1510 N.am         1 D16409   0.0000
    23 CA           4.1250    12.4690    30.0920 C.3          1 D16409   0.0000
    24 CB           3.9710    10.8750    30.0860 C.3          1 D16409   0.0000
    25 CG           3.0610    10.0880    29.0240 C.3          1 D16409   0.0000
    26 CD           3.6070     8.6460    28.6260 C.2          1 D16409   0.0000
    27 OE1          4.1010     8.5330    27.4880 O.co2        1 D16409   0.0000
    28 OE2          3.4910     7.7580    29.4880 O.co2        1 D16409  -1.0000
    29 CT           4.3020    13.1760    31.4920 C.2          1 D16409   0.0000
    30 O1           5.2860    13.9370    31.5960 O.co2        1 D16409   0.0000
    31 O2           3.4420    12.8960    32.3550 O.co2        1 D16409  -1.0000
    32 CP1          8.7650    15.1580    23.0640 C.3          1 D16409   0.0000
    33 HM21         1.9397    22.2693    23.2882 H            1 D16409   0.0000
    34 HM22         1.1846    21.5813    22.0142 H            1 D16409   0.0000
    35 HM23         0.8101    21.1160    23.5341 H            1 D16409   0.0000
    36 H4           6.4985    17.4667    22.9668 H            1 D16409   0.0000
    37 H5           3.6364    14.8048    21.4551 H            1 D16409   0.0000
    38 H6           1.9582    16.5764    21.5558 H            1 D16409   0.0000
    39 H7           6.8900    14.9628    21.3426 H            1 D16409   0.0000
    40 H8           5.9010    13.9573    22.1657 H            1 D16409   0.0000
    41 H9           8.7757    14.3261    25.6926 H            1 D16409   0.0000
    42 H10          7.6763    13.5520    27.7839 H            1 D16409   0.0000
    43 H11          6.1179    12.9859    29.4053 H            1 D16409   0.0000
    44 HA           3.2570    12.8144    29.7353 H            1 D16409   0.0000
    45 HB1          3.6163    10.6293    30.9881 H            1 D16409   0.0000
    46 HB2          4.8958    10.5094    29.9805 H            1 D16409   0.0000
    47 HG1          3.0031    10.6404    28.1924 H            1 D16409   0.0000
    48 HG2          2.1475     9.9788    29.4159 H            1 D16409   0.0000
    49 HP11         9.3098    15.1212    23.9017 H            1 D16409   0.0000
    50 HP12         9.1208    14.4948    22.4056 H            1 D16409   0.0000
    51 HP13         8.8169    16.0768    22.6727 H            1 D16409   0.0000
    52 H20          4.1417    21.5873    23.6266 H            1 D16409   0.0000
@<TRIPOS>BOND
     1    1    2       2
     2    1   12       1
     3    2    3       1
     4    2    4       1
     5    4    5       1
     6    5    6       2
     7    5    7       1
     8    7    8      ar
     9    7   12      ar
    10    8    9      ar
    11    9   10      ar
    12    9   13       1
    13   10   11      ar
    14   11   12      ar
    15   13   14       1
    16   14   17       1
    17   14   32       1
    18   15   16       1
    19   15   19       2
    20   15   20       1
    21   16   17       1
    22   17   18       2
    23   18   19       1
    24   20   21       2
    25   20   22      am
    26   22   23       1
    27   23   24       1
    28   23   29       1
    29   24   25       1
    30   25   26       1
    31   26   27      ar
    32   26   28      ar
    33   29   30      ar
    34   29   31      ar
    35   32   51       1
    36    3   33       1
    37    3   34       1
    38    3   35       1
    39    8   36       1
    40   10   37       1
    41   11   38       1
    42   13   39       1
    43   13   40       1
    44   18   41       1
    45   19   42       1
    46   22   43       1
    47   23   44       1
    48   24   45       1
    49   24   46       1
    50   25   47       1
    51   25   48       1
    52    4   52       1
    53   32   50       1
    54   32   49       1
@<TRIPOS>SUBSTRUCTURE
     1 D16409      1 GROUP             4 B     D16     0 **** D16 B 409
