@<TRIPOS>MOLECULE
4usr_FAD_1_ligand
   84    89     1     0     0
SMALL
NO_CHARGES


@<TRIPOS>ATOM
     1 PA         -10.3430   -22.6810   -13.7070 P.3          1 FAD1355   0.0000
     2 O1A         -9.0460   -22.4720   -14.4410 O.co2        1 FAD1355   0.0000
     3 O2A        -10.4210   -23.5040   -12.4060 O.co2        1 FAD1355  -1.0000
     4 O5B        -10.9750   -21.2470   -13.3950 O.3          1 FAD1355   0.0000
     5 C5B        -12.0240   -21.1070   -12.4220 C.3          1 FAD1355   0.0000
     6 C4B        -11.7560   -19.8490   -11.6040 C.3          1 FAD1355   0.0000
     7 O4B        -12.9510   -19.6380   -10.7870 O.3          1 FAD1355   0.0000
     8 C3B        -10.5620   -20.0270   -10.6840 C.3          1 FAD1355   0.0000
     9 O3B         -9.7980   -18.7930   -10.6030 O.3          1 FAD1355   0.0000
    10 C2B        -11.2450   -20.3720    -9.3650 C.3          1 FAD1355   0.0000
    11 O2B        -10.4210   -20.1000    -8.2320 O.3          1 FAD1355   0.0000
    12 C1B        -12.5180   -19.5100    -9.4220 C.3          1 FAD1355   0.0000
    13 N9A        -13.5810   -19.9300    -8.5020 N.pl3        1 FAD1355   0.0000
    14 C8A        -13.9350   -21.1710    -8.1590 C.2          1 FAD1355   0.0000
    15 N7A        -14.9750   -21.1680    -7.3260 N.2          1 FAD1355   0.0000
    16 C5A        -15.2890   -19.8700    -7.1270 C.ar         1 FAD1355   0.0000
    17 C6A        -16.2500   -19.1630    -6.3020 C.ar         1 FAD1355   0.0000
    18 N6A        -17.1060   -19.8330    -5.5470 N.pl3        1 FAD1355   0.0000
    19 N1A        -16.2990   -17.8450    -6.3640 N.ar         1 FAD1355   0.0000
    20 C2A        -15.4150   -17.1470    -7.1090 C.ar         1 FAD1355   0.0000
    21 N3A        -14.4720   -17.7310    -7.8750 N.ar         1 FAD1355   0.0000
    22 C4A        -14.3920   -19.0950    -7.8990 C.ar         1 FAD1355   0.0000
    23 N1          -6.3990   -27.9800   -21.0670 N.2          1 FAD1355   0.0000
    24 C2          -5.8620   -27.8640   -22.2860 C.2          1 FAD1355   0.0000
    25 O2          -6.5480   -27.1970   -23.1160 O.2          1 FAD1355   0.0000
    26 N3          -4.6290   -28.3490   -22.5640 N.pl3        1 FAD1355   0.0000
    27 C4          -3.8770   -29.0090   -21.6330 C.2          1 FAD1355   0.0000
    28 O4          -2.7130   -29.4830   -21.8900 O.2          1 FAD1355   0.0000
    29 C4X         -4.4150   -29.1470   -20.2750 C.2          1 FAD1355   0.0000
    30 N5          -3.7220   -29.8250   -19.2960 N.2          1 FAD1355   0.0000
    31 C5X         -4.2240   -29.8640   -18.0370 C.ar         1 FAD1355   0.0000
    32 C6          -3.4960   -30.4720   -17.0360 C.ar         1 FAD1355   0.0000
    33 C7          -4.0160   -30.5360   -15.7260 C.ar         1 FAD1355   0.0000
    34 C7M         -3.1990   -31.1770   -14.6000 C.3          1 FAD1355   0.0000
    35 C8          -5.3460   -30.0740   -15.4940 C.ar         1 FAD1355   0.0000
    36 C8M         -5.9530   -30.2140   -14.1240 C.3          1 FAD1355   0.0000
    37 C9          -6.1090   -29.4860   -16.4860 C.ar         1 FAD1355   0.0000
    38 C9A         -5.5980   -29.4040   -17.7790 C.ar         1 FAD1355   0.0000
    39 N10         -6.3380   -28.8170   -18.8290 N.pl3        1 FAD1355   0.0000
    40 C10         -5.7280   -28.6220   -20.0690 C.2          1 FAD1355   0.0000
    41 C1'         -7.7380   -28.4650   -18.6630 C.3          1 FAD1355   0.0000
    42 C2'         -8.4040   -27.1730   -18.4600 C.3          1 FAD1355   0.0000
    43 O2'         -7.9600   -26.3360   -19.4900 O.3          1 FAD1355   0.0000
    44 C3'         -7.9850   -26.7060   -17.0850 C.3          1 FAD1355   0.0000
    45 O3'         -8.6450   -27.5540   -16.1320 O.3          1 FAD1355   0.0000
    46 C4'         -8.4620   -25.2710   -16.8770 C.3          1 FAD1355   0.0000
    47 O4'         -7.9210   -24.8260   -15.6240 O.3          1 FAD1355   0.0000
    48 C5'         -9.9740   -25.0870   -16.9380 C.3          1 FAD1355   0.0000
    49 O5'        -10.2120   -23.6690   -16.9000 O.3          1 FAD1355   0.0000
    50 P          -11.6460   -23.2150   -16.2740 P.3          1 FAD1355   0.0000
    51 O1P        -12.7660   -24.0840   -16.6410 O.co2        1 FAD1355   0.0000
    52 O2P        -11.6840   -21.7480   -16.5650 O.co2        1 FAD1355  -1.0000
    53 O3P        -11.4090   -23.3930   -14.6750 O.3          1 FAD1355   0.0000
    54 H5B1       -12.0351   -21.9054   -11.8200 H            1 FAD1355   0.0000
    55 H5B2       -12.9064   -21.0268   -12.8857 H            1 FAD1355   0.0000
    56 H4B        -11.6105   -19.0675   -12.2107 H            1 FAD1355   0.0000
    57 H3B         -9.9847   -20.7826   -10.9934 H            1 FAD1355   0.0000
    58 H5         -10.3802   -18.0634   -10.2442 H            1 FAD1355   0.0000
    59 H2B        -11.4990   -21.3392    -9.3660 H            1 FAD1355   0.0000
    60 H7         -10.9132   -20.3425    -7.3960 H            1 FAD1355   0.0000
    61 H1B        -12.2799   -18.5562    -9.2387 H            1 FAD1355   0.0000
    62 H8A        -13.4775   -21.9979    -8.4859 H            1 FAD1355   0.0000
    63 H6A1       -17.7659   -19.3393    -4.9806 H            1 FAD1355   0.0000
    64 H6A2       -17.0929   -20.8329    -5.5429 H            1 FAD1355   0.0000
    65 H2A        -15.4623   -16.1483    -7.0916 H            1 FAD1355   0.0000
    66 H13         -4.2554   -28.2198   -23.4826 H            1 FAD1355   0.0000
    67 H14         -2.6000   -30.8673   -17.2385 H            1 FAD1355   0.0000
    68 H7M1        -3.7180   -31.1352   -13.7462 H            1 FAD1355   0.0000
    69 H7M2        -3.0088   -32.1319   -14.8281 H            1 FAD1355   0.0000
    70 H7M3        -2.3368   -30.6824   -14.4905 H            1 FAD1355   0.0000
    71 H8M1        -6.8821   -29.8442   -14.1317 H            1 FAD1355   0.0000
    72 H8M2        -5.9811   -31.1805   -13.8690 H            1 FAD1355   0.0000
    73 H8M3        -5.3992   -29.7103   -13.4610 H            1 FAD1355   0.0000
    74 H21         -7.0174   -29.1237   -16.2774 H            1 FAD1355   0.0000
    75 H1'1        -8.0248   -29.0051   -17.8717 H            1 FAD1355   0.0000
    76 H1'2        -8.1716   -28.8268   -19.4883 H            1 FAD1355   0.0000
    77 H2'         -9.3971   -27.2822   -18.5033 H            1 FAD1355   0.0000
    78 H25         -7.3210   -26.8365   -20.0741 H            1 FAD1355   0.0000
    79 H3'         -6.9922   -26.7654   -16.9806 H            1 FAD1355   0.0000
    80 H27         -8.3916   -27.2749   -15.2058 H            1 FAD1355   0.0000
    81 H4'         -8.0582   -24.7090   -17.5989 H            1 FAD1355   0.0000
    82 H29         -8.2122   -23.8852   -15.4505 H            1 FAD1355   0.0000
    83 H5'1       -10.4085   -25.5318   -16.1548 H            1 FAD1355   0.0000
    84 H5'2       -10.3359   -25.4759   -17.7852 H            1 FAD1355   0.0000
@<TRIPOS>BOND
     1    1    2      ar
     2    1    3      ar
     3    1    4       1
     4    1   53       1
     5    4    5       1
     6    5    6       1
     7    6    7       1
     8    6    8       1
     9    7   12       1
    10    8    9       1
    11    8   10       1
    12   10   11       1
    13   10   12       1
    14   12   13       1
    15   13   14       1
    16   13   22       1
    17   14   15       2
    18   15   16       1
    19   16   17      ar
    20   16   22      ar
    21   17   18       1
    22   17   19      ar
    23   19   20      ar
    24   20   21      ar
    25   21   22      ar
    26   23   24       1
    27   23   40       2
    28   24   25       2
    29   24   26       1
    30   26   27       1
    31   27   28       2
    32   27   29       1
    33   29   30       2
    34   29   40       1
    35   30   31       1
    36   31   32      ar
    37   31   38      ar
    38   32   33      ar
    39   33   34       1
    40   33   35      ar
    41   35   36       1
    42   35   37      ar
    43   37   38      ar
    44   38   39       1
    45   39   40       1
    46   39   41       1
    47   41   42       1
    48   42   43       1
    49   42   44       1
    50   44   45       1
    51   44   46       1
    52   46   47       1
    53   46   48       1
    54   48   49       1
    55   49   50       1
    56   50   51      ar
    57   50   52      ar
    58   50   53       1
    59   48   84       1
    60    5   54       1
    61    5   55       1
    62    6   56       1
    63    8   57       1
    64    9   58       1
    65   10   59       1
    66   11   60       1
    67   12   61       1
    68   14   62       1
    69   18   63       1
    70   18   64       1
    71   20   65       1
    72   26   66       1
    73   32   67       1
    74   34   68       1
    75   34   69       1
    76   34   70       1
    77   36   71       1
    78   36   72       1
    79   36   73       1
    80   37   74       1
    81   41   75       1
    82   41   76       1
    83   42   77       1
    84   43   78       1
    85   44   79       1
    86   45   80       1
    87   46   81       1
    88   47   82       1
    89   48   83       1
@<TRIPOS>SUBSTRUCTURE
     1 FAD1355     1 GROUP             4 A     FAD     0 **** FAD A1355
