@<TRIPOS>MOLECULE
2d52_COA_2_ligand
   80    82     1     0     0
SMALL
NO_CHARGES


@<TRIPOS>ATOM
     1 N1A          3.0010    26.5040   -21.8800 N.ar         1 COA501   0.0000
     2 C2A          2.1210    26.2030   -22.9520 C.ar         1 COA501   0.0000
     3 N3A          2.3610    26.6220   -24.2390 N.ar         1 COA501   0.0000
     4 C4A          3.5750    27.3760   -24.3540 C.ar         1 COA501   0.0000
     5 C5A          4.5060    27.7220   -23.3570 C.ar         1 COA501   0.0000
     6 C6A          4.2070    27.2570   -22.0110 C.ar         1 COA501   0.0000
     7 N6A          5.0230    27.5260   -20.9610 N.pl3        1 COA501   0.0000
     8 N7A          5.5590    28.4610   -23.8530 N.2          1 COA501   0.0000
     9 C8A          5.2610    28.5620   -25.1570 C.2          1 COA501   0.0000
    10 N9A          4.0820    27.9320   -25.5260 N.pl3        1 COA501   0.0000
    11 C1B          3.3540    27.8090   -26.9710 C.3          1 COA501   0.0000
    12 C2B          2.8990    28.9410   -27.7560 C.3          1 COA501   0.0000
    13 O2B          1.7420    29.1960   -27.0700 O.3          1 COA501   0.0000
    14 C3B          3.0450    28.2290   -29.1130 C.3          1 COA501   0.0000
    15 O3B          1.8080    27.5070   -29.5980 O.3          1 COA501   0.0000
    16 P3B          0.3580    27.9410   -30.1480 P.3          1 COA501   0.0000
    17 O7A         -0.3900    26.5290   -30.0050 O.co2        1 COA501   0.0000
    18 O8A          0.5710    28.3740   -31.5470 O.co2        1 COA501  -1.0000
    19 O9A         -0.2580    29.0800   -29.3700 O.co2        1 COA501  -1.0000
    20 C4B          4.1540    27.0930   -29.1650 C.3          1 COA501   0.0000
    21 O4B          4.3310    26.9480   -27.6610 O.3          1 COA501   0.0000
    22 C5B          5.5670    27.5510   -29.7380 C.3          1 COA501   0.0000
    23 O5B          5.7090    29.0550   -29.9350 O.3          1 COA501   0.0000
    24 P1A          6.4910    29.9860   -30.5360 P.3          1 COA501   0.0000
    25 O1A          6.4020    29.6260   -31.9940 O.co2        1 COA501   0.0000
    26 O2A          5.9580    31.3530   -30.1820 O.co2        1 COA501  -1.0000
    27 O3A          7.9230    29.7660   -29.9510 O.3          1 COA501   0.0000
    28 P2A          8.9300    30.4710   -28.9800 P.3          1 COA501   0.0000
    29 O4A          9.6650    31.4410   -29.8170 O.co2        1 COA501   0.0000
    30 O5A          8.2150    31.2080   -27.9100 O.co2        1 COA501  -1.0000
    31 O6A         10.0770    29.5550   -28.5090 O.3          1 COA501   0.0000
    32 CBP         10.4760    28.4940   -26.3170 C.3          1 COA501   0.0000
    33 CCP          9.6410    28.4310   -27.6950 C.3          1 COA501   0.0000
    34 CDP         11.9530    28.2050   -26.6960 C.3          1 COA501   0.0000
    35 CEP          9.9730    27.4090   -25.3490 C.3          1 COA501   0.0000
    36 CAP         10.2480    29.9190   -25.6460 C.3          1 COA501   0.0000
    37 OAP          8.8410    30.1960   -25.3870 O.3          1 COA501   0.0000
    38 C9P         10.9310    30.1620   -24.2550 C.2          1 COA501   0.0000
    39 O9P         12.2000    30.2770   -24.3070 O.2          1 COA501   0.0000
    40 N8P         10.1500    30.2280   -23.1570 N.am         1 COA501   0.0000
    41 C7P         10.8760    30.4670   -21.8020 C.3          1 COA501   0.0000
    42 C6P         11.1800    29.0760   -21.3280 C.3          1 COA501   0.0000
    43 C5P         11.2910    28.9680   -19.8010 C.2          1 COA501   0.0000
    44 O5P         10.3980    29.2920   -19.4160 O.2          1 COA501   0.0000
    45 N4P         12.4190    28.4850   -19.2550 N.am         1 COA501   0.0000
    46 C3P         12.4440    28.3560   -17.7330 C.3          1 COA501   0.0000
    47 C2P         12.1890    26.9530   -17.2070 C.3          1 COA501   0.0000
    48 S1P         12.2860    27.0750   -15.4050 S.3          1 COA501   0.0000
    49 H2A          1.2976    25.6674   -22.7645 H            1 COA501   0.0000
    50 H6A1         5.8583    28.0578   -21.1003 H            1 COA501   0.0000
    51 H6A2         4.7891    27.1925   -20.0477 H            1 COA501   0.0000
    52 H8A          5.8408    29.0509   -25.8088 H            1 COA501   0.0000
    53 H1B          2.5462    27.2388   -26.8214 H            1 COA501   0.0000
    54 H2B          3.5363    29.7081   -27.6827 H            1 COA501   0.0000
    55 H7           0.9615    29.1106   -27.6893 H            1 COA501   0.0000
    56 H3B          3.2830    28.9195   -29.7960 H            1 COA501   0.0000
    57 H4B          3.8214    26.2530   -29.5938 H            1 COA501   0.0000
    58 H5B1         5.7051    27.1053   -30.6225 H            1 COA501   0.0000
    59 H5B2         6.2756    27.2510   -29.0993 H            1 COA501   0.0000
    60 HCP1         9.8266    27.5708   -28.1699 H            1 COA501   0.0000
    61 HCP2         8.6616    28.5031   -27.5065 H            1 COA501   0.0000
    62 HDP1        12.5198    28.2318   -25.8726 H            1 COA501   0.0000
    63 HDP2        12.0183    27.3000   -27.1163 H            1 COA501   0.0000
    64 HDP3        12.2725    28.8970   -27.3433 H            1 COA501   0.0000
    65 HEP1        10.4951    27.4541   -24.4973 H            1 COA501   0.0000
    66 HEP2         9.0038    27.5594   -25.1542 H            1 COA501   0.0000
    67 HEP3        10.0932    26.5082   -25.7663 H            1 COA501   0.0000
    68 HAP         10.5863    30.6145   -26.2799 H            1 COA501   0.0000
    69 H21          8.4385    30.6489   -26.1825 H            1 COA501   0.0000
    70 H8P          9.1564    30.1285   -23.2112 H            1 COA501   0.0000
    71 H7P1        10.2811    30.9445   -21.1554 H            1 COA501   0.0000
    72 H7P2        11.7162    30.9932   -21.9330 H            1 COA501   0.0000
    73 H6P1        12.0479    28.7855   -21.7310 H            1 COA501   0.0000
    74 H6P2        10.4488    28.4680   -21.6373 H            1 COA501   0.0000
    75 H4P         13.2036    28.2228   -19.8169 H            1 COA501   0.0000
    76 H3P1        11.7416    28.9610   -17.3581 H            1 COA501   0.0000
    77 H3P2        13.3438    28.6501   -17.4108 H            1 COA501   0.0000
    78 H2P1        12.8834    26.3209   -17.5508 H            1 COA501   0.0000
    79 H2P2        11.2825    26.6362   -17.4860 H            1 COA501   0.0000
    80 H1P         13.0149    26.4784   -15.0693 H            1 COA501   0.0000
@<TRIPOS>BOND
     1    1    2      ar
     2    1    6      ar
     3    2    3      ar
     4    3    4      ar
     5    4    5      ar
     6    4   10       1
     7    5    6      ar
     8    5    8       1
     9    6    7       1
    10    8    9       2
    11    9   10       1
    12   10   11       1
    13   11   12       1
    14   11   21       1
    15   12   13       1
    16   12   14       1
    17   14   15       1
    18   14   20       1
    19   15   16       1
    20   16   17      ar
    21   16   18      ar
    22   16   19      ar
    23   20   21       1
    24   20   22       1
    25   22   23       1
    26   23   24       1
    27   24   25      ar
    28   24   26      ar
    29   24   27       1
    30   27   28       1
    31   28   29      ar
    32   28   30      ar
    33   28   31       1
    34   31   33       1
    35   32   33       1
    36   32   34       1
    37   32   35       1
    38   32   36       1
    39   36   37       1
    40   36   38       1
    41   38   39       2
    42   38   40      am
    43   40   41       1
    44   41   42       1
    45   42   43       1
    46   43   44       2
    47   43   45      am
    48   45   46       1
    49   46   47       1
    50   47   48       1
    51    2   49       1
    52    7   50       1
    53    7   51       1
    54    9   52       1
    55   11   53       1
    56   12   54       1
    57   13   55       1
    58   14   56       1
    59   48   80       1
    60   47   79       1
    61   20   57       1
    62   22   58       1
    63   22   59       1
    64   47   78       1
    65   46   77       1
    66   33   60       1
    67   33   61       1
    68   34   62       1
    69   34   63       1
    70   34   64       1
    71   35   65       1
    72   35   66       1
    73   35   67       1
    74   36   68       1
    75   37   69       1
    76   40   70       1
    77   41   71       1
    78   41   72       1
    79   42   73       1
    80   42   74       1
    81   45   75       1
    82   46   76       1
@<TRIPOS>SUBSTRUCTURE
     1 COA501      1 GROUP             4 B     COA     0 **** COA B 501
