@<TRIPOS>MOLECULE
2pc4_ASP_TRP_ASN_1_ligand
   53    54     3     0     0
SMALL
NO_CHARGES


@<TRIPOS>ATOM
     1 N            9.2100   -22.4520    -7.0000 N.4          1 ASP604   1.0000
     2 CA           8.2100   -23.3360    -7.6730 C.3          1 ASP604   0.0000
     3 C            7.0050   -23.6880    -6.7840 C.2          1 ASP604   0.0000
     4 O            6.0540   -24.3130    -7.2540 O.2          1 ASP604   0.0000
     5 CB           8.8880   -24.6190    -8.1580 C.3          1 ASP604   0.0000
     6 CG           9.4180   -25.4680    -7.0160 C.2          1 ASP604   0.0000
     7 OD1         10.0080   -24.9010    -6.0710 O.co2        1 ASP604   0.0000
     8 OD2          9.2460   -26.7030    -7.0660 O.co2        1 ASP604  -1.0000
     9 H1           8.7587   -21.6165    -6.6864 H            1 ASP604   0.0000
    10 H2           9.6050   -22.9317    -6.2165 H            1 ASP604   0.0000
    11 HA           7.8652   -22.8505    -8.4764 H            1 ASP604   0.0000
    12 HB1          9.6517   -24.3718    -8.7543 H            1 ASP604   0.0000
    13 HB2          8.2223   -25.1572    -8.6748 H            1 ASP604   0.0000
    14 N            7.0590   -23.3040    -5.5070 N.am         2 TRP605   0.0000
    15 CA           5.9290   -23.4500    -4.5810 C.3          2 TRP605   0.0000
    16 C            4.9690   -22.2900    -4.8600 C.2          2 TRP605   0.0000
    17 O            5.0240   -21.2490    -4.1970 O.2          2 TRP605   0.0000
    18 CB           6.4380   -23.4300    -3.1290 C.3          2 TRP605   0.0000
    19 CG           5.4610   -23.9110    -2.0910 C.2          2 TRP605   0.0000
    20 CD1          4.1130   -24.0600    -2.2320 C.2          2 TRP605   0.0000
    21 CD2          5.7610   -24.2680    -0.7340 C.ar         2 TRP605   0.0000
    22 NE1          3.5590   -24.5050    -1.0570 N.pl3        2 TRP605   0.0000
    23 CE2          4.5470   -24.6370    -0.1200 C.ar         2 TRP605   0.0000
    24 CE3          6.9360   -24.3120     0.0190 C.ar         2 TRP605   0.0000
    25 CZ2          4.4750   -25.0500     1.2120 C.ar         2 TRP605   0.0000
    26 CZ3          6.8620   -24.7230     1.3480 C.ar         2 TRP605   0.0000
    27 CH2          5.6400   -25.0870     1.9270 C.ar         2 TRP605   0.0000
    28 H6           7.9070   -22.8987    -5.1656 H            2 TRP605   0.0000
    29 H7           5.4635   -24.3171    -4.7584 H            2 TRP605   0.0000
    30 H8           6.6877   -22.4883    -2.9035 H            2 TRP605   0.0000
    31 H9           7.2503   -24.0112    -3.0797 H            2 TRP605   0.0000
    32 HD1          3.6014   -23.8722    -3.0705 H            2 TRP605   0.0000
    33 HE1          2.5895   -24.7010    -0.9099 H            2 TRP605   0.0000
    34 HE3          7.8125   -24.0538    -0.3873 H            2 TRP605   0.0000
    35 HZ2          3.6033   -25.3092     1.6278 H            2 TRP605   0.0000
    36 HZ3          7.6962   -24.7587     1.8983 H            2 TRP605   0.0000
    37 HH2          5.6189   -25.3800     2.8829 H            2 TRP605   0.0000
    38 N            4.0890   -22.4940    -5.8450 N.am         3 ASN606   0.0000
    39 CA           3.4080   -21.4010    -6.5600 C.3          3 ASN606   0.0000
    40 C            4.4200   -20.3820    -7.0930 C.2          3 ASN606   0.0000
    41 O            5.0660   -20.6390    -8.1080 O.co2        3 ASN606   0.0000
    42 CB           2.3290   -20.7220    -5.6980 C.3          3 ASN606   0.0000
    43 CG           0.9530   -21.3480    -5.8750 C.2          3 ASN606   0.0000
    44 OD1          0.8211   -22.5729    -5.9528 O.2          3 ASN606   0.0000
    45 ND2         -0.0772   -20.5112    -5.9391 N.am         3 ASN606   0.0000
    46 OXT          4.6380   -19.3030    -6.5340 O.co2        3 ASN606  -1.0000
    47 H16          3.8825   -23.4359    -6.1099 H            3 ASN606   0.0000
    48 H17          2.9471   -21.8042    -7.3506 H            3 ASN606   0.0000
    49 H18          2.2763   -19.7567    -5.9539 H            3 ASN606   0.0000
    50 H19          2.5934   -20.7980    -4.7366 H            3 ASN606   0.0000
    51 HD21        -1.0044   -20.8675    -6.0547 H            3 ASN606   0.0000
    52 HD22         0.0747   -19.5251    -5.8718 H            3 ASN606   0.0000
    53 H22          9.9353   -22.2164    -7.6468 H            3 ASN606   0.0000
@<TRIPOS>BOND
     1    1    2       1
     2    2    5       1
     3    2    3       1
     4    5    6       1
     5    6    7      ar
     6    6    8      ar
     7    3    4       2
     8    1    9       1
     9    1   10       1
    10    2   11       1
    11    3   14      am
    12    5   12       1
    13    5   13       1
    14   14   15       1
    15   15   18       1
    16   15   16       1
    17   18   19       1
    18   19   21       1
    19   19   20       2
    20   21   24      ar
    21   21   23      ar
    22   24   26      ar
    23   26   27      ar
    24   23   25      ar
    25   23   22       1
    26   25   27      ar
    27   22   20       1
    28   16   17       2
    29   27   37       1
    30   14   28       1
    31   15   29       1
    32   16   38      am
    33   18   30       1
    34   18   31       1
    35   20   32       1
    36   22   33       1
    37   24   34       1
    38   25   35       1
    39   26   36       1
    40   38   39       1
    41   39   42       1
    42   39   40       1
    43   42   43       1
    44   43   44       2
    45   43   45      am
    46   40   41      ar
    47   40   46      ar
    48   45   52       1
    49   38   47       1
    50   39   48       1
    51   42   49       1
    52   42   50       1
    53   45   51       1
    54    1   53       1
@<TRIPOS>SUBSTRUCTURE
     1 ASP604      1 RESIDUE           4 H     ASP     0 **** ASP H 604
     2 TRP605     14 RESIDUE           4 H     TRP     0 **** TRP H 605
     3 ASN606     38 RESIDUE           4 H     ASN     0 **** ASN H 606
