@<TRIPOS>MOLECULE
4jwp_ACO_1_ligand
   85    87     1     0     0
SMALL
NO_CHARGES


@<TRIPOS>ATOM
     1 N1A         38.7050    32.6920    12.5960 N.ar         1 ACO201   0.0000
     2 C2A         38.9010    33.2620    11.3880 C.ar         1 ACO201   0.0000
     3 N3A         38.1390    32.9950    10.3170 N.ar         1 ACO201   0.0000
     4 C4A         37.0960    32.1360    10.4180 C.ar         1 ACO201   0.0000
     5 C5A         36.8070    31.4740    11.6870 C.ar         1 ACO201   0.0000
     6 C6A         37.7050    31.8120    12.8130 C.ar         1 ACO201   0.0000
     7 N6A         37.4750    31.2130    14.0180 N.pl3        1 ACO201   0.0000
     8 N7A         35.7350    30.6660    11.5110 N.2          1 ACO201   0.0000
     9 C8A         35.3710    30.7930    10.2040 C.2          1 ACO201   0.0000
    10 N9A         36.1930    31.6630     9.5770 N.pl3        1 ACO201   0.0000
    11 C1B         36.0600    32.1440     8.1710 C.3          1 ACO201   0.0000
    12 C2B         36.0580    31.0690     7.1000 C.3          1 ACO201   0.0000
    13 O2B         37.3690    30.8120     6.6460 O.3          1 ACO201   0.0000
    14 C3B         35.1510    31.6930     6.0510 C.3          1 ACO201   0.0000
    15 O3B         35.8750    32.6660     5.2830 O.3          1 ACO201   0.0000
    16 P3B         35.9310    32.6330     3.6510 P.3          1 ACO201   0.0000
    17 O7A         34.4950    32.7600     3.2310 O.co2        1 ACO201   0.0000
    18 O8A         36.6440    31.3720     3.3770 O.co2        1 ACO201  -1.0000
    19 O9A         36.7130    33.9050     3.3190 O.co2        1 ACO201  -1.0000
    20 C4B         34.0970    32.4230     6.8860 C.3          1 ACO201   0.0000
    21 O4B         34.7490    32.7400     8.1250 O.3          1 ACO201   0.0000
    22 C5B         32.8130    31.6160     7.1370 C.3          1 ACO201   0.0000
    23 O5B         33.1260    30.2600     7.3420 O.3          1 ACO201   0.0000
    24 P1A         31.9920    29.2140     7.7230 P.3          1 ACO201   0.0000
    25 O1A         32.7160    27.9310     7.9730 O.co2        1 ACO201   0.0000
    26 O2A         30.8730    29.2450     6.7250 O.co2        1 ACO201  -1.0000
    27 O3A         31.3750    29.8730     9.0320 O.3          1 ACO201   0.0000
    28 P2A         30.8540    29.1730    10.3560 P.3          1 ACO201   0.0000
    29 O4A         31.9810    28.9930    11.2910 O.co2        1 ACO201   0.0000
    30 O5A         29.9840    27.9760    10.0110 O.co2        1 ACO201  -1.0000
    31 O6A         29.8960    30.3140    10.9110 O.3          1 ACO201   0.0000
    32 CBP         29.7210    32.1810    12.4640 C.3          1 ACO201   0.0000
    33 CCP         30.4100    31.6160    11.2410 C.3          1 ACO201   0.0000
    34 CDP         28.2320    32.2490    12.1790 C.3          1 ACO201   0.0000
    35 CEP         30.2400    33.5820    12.7090 C.3          1 ACO201   0.0000
    36 CAP         30.1250    31.2500    13.6530 C.3          1 ACO201   0.0000
    37 OAP         31.5220    31.4170    13.9310 O.3          1 ACO201   0.0000
    38 C9P         29.4610    31.4920    14.9830 C.2          1 ACO201   0.0000
    39 O9P         28.3900    30.9890    15.2670 O.2          1 ACO201   0.0000
    40 N8P         30.0820    32.2920    15.8530 N.am         1 ACO201   0.0000
    41 C7P         29.4400    32.7280    17.1090 C.3          1 ACO201   0.0000
    42 C6P         28.1620    33.4960    16.8960 C.3          1 ACO201   0.0000
    43 C5P         28.4460    34.7410    16.0560 C.2          1 ACO201   0.0000
    44 O5P         29.4670    35.3810    16.2560 O.2          1 ACO201   0.0000
    45 N4P         27.5690    35.1350    15.1310 N.am         1 ACO201   0.0000
    46 C3P         27.8110    36.3720    14.3500 C.3          1 ACO201   0.0000
    47 C2P         27.5860    37.6560    15.1370 C.3          1 ACO201   0.0000
    48 S1P         27.8100    39.1490    14.1550 S.3          1 ACO201   0.0000
    49 C           26.1840    39.4610    13.8060 C.2          1 ACO201   0.0000
    50 O           25.3590    39.9440    14.6520 O.2          1 ACO201   0.0000
    51 CH3         25.7520    39.1910    12.4470 C.3          1 ACO201   0.0000
    52 H2A         39.6512    33.9154    11.2867 H            1 ACO201   0.0000
    53 H6A1        36.7175    30.5681    14.1193 H            1 ACO201   0.0000
    54 H6A2        38.0640    31.4192    14.7994 H            1 ACO201   0.0000
    55 H8A         34.6075    30.3128     9.7722 H            1 ACO201   0.0000
    56 H1B         36.7597    32.8301     7.9719 H            1 ACO201   0.0000
    57 H2B         35.6463    30.2299     7.4555 H            1 ACO201   0.0000
    58 H7          37.3395    30.5199     5.6901 H            1 ACO201   0.0000
    59 H3B         34.7365    30.9974     5.4642 H            1 ACO201   0.0000
    60 H4B         33.8549    33.2758     6.4232 H            1 ACO201   0.0000
    61 H5B1        32.2095    31.6998     6.3441 H            1 ACO201   0.0000
    62 H5B2        32.3502    31.9747     7.9476 H            1 ACO201   0.0000
    63 HCP1        30.2594    32.2320    10.4678 H            1 ACO201   0.0000
    64 HCP2        31.3906    31.5433    11.4232 H            1 ACO201   0.0000
    65 HDP1        27.7566    32.6206    12.9765 H            1 ACO201   0.0000
    66 HDP2        28.0705    32.8406    11.3891 H            1 ACO201   0.0000
    67 HDP3        27.8877    31.3307    11.9837 H            1 ACO201   0.0000
    68 HEP1        29.7919    33.9672    13.5157 H            1 ACO201   0.0000
    69 HEP2        31.2280    33.5498    12.8600 H            1 ACO201   0.0000
    70 HEP3        30.0429    34.1544    11.9131 H            1 ACO201   0.0000
    71 HAP         29.9642    30.3004    13.3839 H            1 ACO201   0.0000
    72 H21         31.9095    32.0890    13.2999 H            1 ACO201   0.0000
    73 H8P         31.0093    32.6051    15.6479 H            1 ACO201   0.0000
    74 H7P1        30.0814    33.3126    17.6059 H            1 ACO201   0.0000
    75 H7P2        29.2344    31.9174    17.6573 H            1 ACO201   0.0000
    76 H6P1        27.7871    33.7704    17.7815 H            1 ACO201   0.0000
    77 H6P2        27.5010    32.9165    16.4193 H            1 ACO201   0.0000
    78 H4P         26.7449    34.5938    14.9637 H            1 ACO201   0.0000
    79 H3P1        27.1934    36.3731    13.5635 H            1 ACO201   0.0000
    80 H3P2        28.7583    36.3614    14.0299 H            1 ACO201   0.0000
    81 H2P1        28.2336    37.6780    15.8987 H            1 ACO201   0.0000
    82 H2P2        26.6518    37.6490    15.4938 H            1 ACO201   0.0000
    83 HH31        24.7806    39.4102    12.3563 H            1 ACO201   0.0000
    84 HH32        26.2813    39.7527    11.8112 H            1 ACO201   0.0000
    85 HH33        25.8965    38.2240    12.2372 H            1 ACO201   0.0000
@<TRIPOS>BOND
     1    1    2      ar
     2    1    6      ar
     3    2    3      ar
     4    3    4      ar
     5    4    5      ar
     6    4   10       1
     7    5    6      ar
     8    5    8       1
     9    6    7       1
    10    8    9       2
    11    9   10       1
    12   10   11       1
    13   11   12       1
    14   11   21       1
    15   12   13       1
    16   12   14       1
    17   14   15       1
    18   14   20       1
    19   15   16       1
    20   16   17      ar
    21   16   18      ar
    22   16   19      ar
    23   20   21       1
    24   20   22       1
    25   22   23       1
    26   23   24       1
    27   24   25      ar
    28   24   26      ar
    29   24   27       1
    30   27   28       1
    31   28   29      ar
    32   28   30      ar
    33   28   31       1
    34   31   33       1
    35   32   33       1
    36   32   34       1
    37   32   35       1
    38   32   36       1
    39   36   37       1
    40   36   38       1
    41   38   39       2
    42   38   40      am
    43   40   41       1
    44   41   42       1
    45   42   43       1
    46   43   44       2
    47   43   45      am
    48   45   46       1
    49   46   47       1
    50   47   48       1
    51   48   49       1
    52   49   50       2
    53   49   51       1
    54    2   52       1
    55    7   53       1
    56    7   54       1
    57    9   55       1
    58   11   56       1
    59   12   57       1
    60   13   58       1
    61   14   59       1
    62   51   85       1
    63   51   84       1
    64   20   60       1
    65   22   61       1
    66   22   62       1
    67   51   83       1
    68   47   82       1
    69   33   63       1
    70   33   64       1
    71   34   65       1
    72   34   66       1
    73   34   67       1
    74   35   68       1
    75   35   69       1
    76   35   70       1
    77   36   71       1
    78   37   72       1
    79   40   73       1
    80   41   74       1
    81   41   75       1
    82   42   76       1
    83   42   77       1
    84   45   78       1
    85   46   79       1
    86   46   80       1
    87   47   81       1
@<TRIPOS>SUBSTRUCTURE
     1 ACO201      1 GROUP             4 A     ACO     0 **** ACO A 201
