@<TRIPOS>MOLECULE
2vss_ACO_2_ligand
   85    87     1     0     0
SMALL
NO_CHARGES


@<TRIPOS>ATOM
     1 N1A         55.0750   -17.3830   -32.9200 N.ar         1 ACO1250   0.0000
     2 C2A         56.2920   -17.7590   -33.3690 C.ar         1 ACO1250   0.0000
     3 N3A         57.3500   -17.7960   -32.5590 N.ar         1 ACO1250   0.0000
     4 C4A         57.2190   -17.4390   -31.2490 C.ar         1 ACO1250   0.0000
     5 C5A         55.9780   -17.0280   -30.7700 C.ar         1 ACO1250   0.0000
     6 C6A         54.8930   -17.0220   -31.6470 C.ar         1 ACO1250   0.0000
     7 N6A         53.6640   -16.6820   -31.2590 N.pl3        1 ACO1250   0.0000
     8 N7A         56.1430   -16.7610   -29.4720 N.2          1 ACO1250   0.0000
     9 C8A         57.4110   -16.9610   -29.1320 C.2          1 ACO1250   0.0000
    10 N9A         58.0690   -17.3850   -30.2140 N.pl3        1 ACO1250   0.0000
    11 C1B         59.5000   -17.6830   -30.2840 C.3          1 ACO1250   0.0000
    12 C2B         60.2910   -16.3660   -30.2480 C.3          1 ACO1250   0.0000
    13 O2B         60.4580   -15.7810   -31.5030 O.3          1 ACO1250   0.0000
    14 C3B         61.6470   -16.8750   -29.7970 C.3          1 ACO1250   0.0000
    15 O3B         62.3500   -17.4330   -30.9140 O.3          1 ACO1250   0.0000
    16 P3B         64.0200   -17.4010   -31.0340 P.3          1 ACO1250   0.0000
    17 O7A         64.2640   -18.6400   -31.9440 O.co2        1 ACO1250   0.0000
    18 O8A         64.3790   -16.1730   -31.8390 O.co2        1 ACO1250  -1.0000
    19 O9A         64.6750   -17.4530   -29.6930 O.co2        1 ACO1250  -1.0000
    20 C4B         61.2900   -17.9590   -28.7910 C.3          1 ACO1250   0.0000
    21 O4B         59.8390   -18.3170   -29.0360 O.3          1 ACO1250   0.0000
    22 C5B         61.3770   -17.4340   -27.3640 C.3          1 ACO1250   0.0000
    23 O5B         60.6130   -16.2200   -27.2790 O.3          1 ACO1250   0.0000
    24 P1A         61.0450   -15.0770   -26.1870 P.3          1 ACO1250   0.0000
    25 O1A         62.7050   -15.1220   -26.2500 O.co2        1 ACO1250   0.0000
    26 O2A         60.3430   -13.7880   -26.3770 O.co2        1 ACO1250  -1.0000
    27 O3A         60.7290   -15.8330   -24.7740 O.3          1 ACO1250   0.0000
    28 P2A         60.2890   -15.0770   -23.4500 P.3          1 ACO1250   0.0000
    29 O4A         61.0270   -13.6720   -23.2890 O.co2        1 ACO1250   0.0000
    30 O5A         60.1890   -15.9820   -22.2700 O.co2        1 ACO1250  -1.0000
    31 O6A         58.7350   -14.6300   -23.7780 O.3          1 ACO1250   0.0000
    32 CBP         56.4190   -15.0080   -24.4580 C.3          1 ACO1250   0.0000
    33 CCP         57.6740   -15.6150   -23.8220 C.3          1 ACO1250   0.0000
    34 CDP         55.8950   -13.9790   -23.4060 C.3          1 ACO1250   0.0000
    35 CEP         55.3930   -16.1270   -24.7420 C.3          1 ACO1250   0.0000
    36 CAP         56.8440   -14.2680   -25.7840 C.3          1 ACO1250   0.0000
    37 OAP         57.5750   -15.0840   -26.6510 O.3          1 ACO1250   0.0000
    38 C9P         55.6330   -13.6060   -26.5000 C.2          1 ACO1250   0.0000
    39 O9P         54.9870   -12.7330   -25.8930 O.2          1 ACO1250   0.0000
    40 N8P         55.3660   -14.0610   -27.7460 N.am         1 ACO1250   0.0000
    41 C7P         54.2780   -13.5540   -28.6610 C.3          1 ACO1250   0.0000
    42 C6P         52.9190   -14.2680   -28.5050 C.3          1 ACO1250   0.0000
    43 C5P         51.8120   -13.2310   -28.8080 C.2          1 ACO1250   0.0000
    44 O5P         51.8470   -12.1710   -28.2160 O.2          1 ACO1250   0.0000
    45 N4P         50.8230   -13.4210   -29.7030 N.am         1 ACO1250   0.0000
    46 C3P         50.4360   -14.5460   -30.5950 C.3          1 ACO1250   0.0000
    47 C2P         48.8750   -14.4800   -30.7900 C.3          1 ACO1250   0.0000
    48 S1P         48.1580   -14.2310   -32.5150 S.3          1 ACO1250   0.0000
    49 C           47.2530   -15.6870   -32.7240 C.2          1 ACO1250   0.0000
    50 O           47.8120   -16.6750   -32.2710 O.2          1 ACO1250   0.0000
    51 CH3         45.8180   -15.7130   -33.4100 C.3          1 ACO1250   0.0000
    52 H2A         56.4017   -18.0151   -34.3294 H            1 ACO1250   0.0000
    53 H6A1        53.4967   -16.4072   -30.3122 H            1 ACO1250   0.0000
    54 H6A2        52.9093   -16.7017   -31.9147 H            1 ACO1250   0.0000
    55 H8A         57.8047   -16.8189   -28.2238 H            1 ACO1250   0.0000
    56 H1B         59.7343   -18.2477   -31.0753 H            1 ACO1250   0.0000
    57 H2B         59.9024   -15.7210   -29.5900 H            1 ACO1250   0.0000
    58 H7          61.3014   -16.1205   -31.9195 H            1 ACO1250   0.0000
    59 H3B         62.1788   -16.1461   -29.3658 H            1 ACO1250   0.0000
    60 H4B         61.8771   -18.7597   -28.9100 H            1 ACO1250   0.0000
    61 H5B1        62.3315   -17.2493   -27.1299 H            1 ACO1250   0.0000
    62 H5B2        61.0039   -18.1126   -26.7313 H            1 ACO1250   0.0000
    63 HCP1        57.4617   -15.9144   -22.8918 H            1 ACO1250   0.0000
    64 HCP2        57.9734   -16.3998   -24.3647 H            1 ACO1250   0.0000
    65 HDP1        55.0682   -13.5376   -23.7546 H            1 ACO1250   0.0000
    66 HDP2        55.6844   -14.4538   -22.5515 H            1 ACO1250   0.0000
    67 HDP3        56.5970   -13.2868   -23.2384 H            1 ACO1250   0.0000
    68 HEP1        54.5740   -15.7308   -25.1571 H            1 ACO1250   0.0000
    69 HEP2        55.7939   -16.7957   -25.3682 H            1 ACO1250   0.0000
    70 HEP3        55.1468   -16.5790   -23.8846 H            1 ACO1250   0.0000
    71 HAP         57.4543   -13.5243   -25.5114 H            1 ACO1250   0.0000
    72 H21         58.4766   -14.6807   -26.8076 H            1 ACO1250   0.0000
    73 H8P         55.9424   -14.8011   -28.0924 H            1 ACO1250   0.0000
    74 H7P1        54.5852   -13.6720   -29.6053 H            1 ACO1250   0.0000
    75 H7P2        54.1419   -12.5811   -28.4738 H            1 ACO1250   0.0000
    76 H6P1        52.8189   -14.6114   -27.5712 H            1 ACO1250   0.0000
    77 H6P2        52.8580   -15.0306   -29.1489 H            1 ACO1250   0.0000
    78 H4P         50.2151   -12.6313   -29.7856 H            1 ACO1250   0.0000
    79 H3P1        50.6912   -15.4173   -30.1759 H            1 ACO1250   0.0000
    80 H3P2        50.8947   -14.4542   -31.4789 H            1 ACO1250   0.0000
    81 H2P1        48.5443   -13.7228   -30.2266 H            1 ACO1250   0.0000
    82 H2P2        48.5029   -15.3409   -30.4430 H            1 ACO1250   0.0000
    83 HH31        45.4747   -16.6520   -33.4292 H            1 ACO1250   0.0000
    84 HH32        45.1882   -15.1385   -32.8873 H            1 ACO1250   0.0000
    85 HH33        45.8890   -15.3649   -34.3447 H            1 ACO1250   0.0000
@<TRIPOS>BOND
     1    1    2      ar
     2    1    6      ar
     3    2    3      ar
     4    3    4      ar
     5    4    5      ar
     6    4   10       1
     7    5    6      ar
     8    5    8       1
     9    6    7       1
    10    8    9       2
    11    9   10       1
    12   10   11       1
    13   11   12       1
    14   11   21       1
    15   12   13       1
    16   12   14       1
    17   14   15       1
    18   14   20       1
    19   15   16       1
    20   16   17      ar
    21   16   18      ar
    22   16   19      ar
    23   20   21       1
    24   20   22       1
    25   22   23       1
    26   23   24       1
    27   24   25      ar
    28   24   26      ar
    29   24   27       1
    30   27   28       1
    31   28   29      ar
    32   28   30      ar
    33   28   31       1
    34   31   33       1
    35   32   33       1
    36   32   34       1
    37   32   35       1
    38   32   36       1
    39   36   37       1
    40   36   38       1
    41   38   39       2
    42   38   40      am
    43   40   41       1
    44   41   42       1
    45   42   43       1
    46   43   44       2
    47   43   45      am
    48   45   46       1
    49   46   47       1
    50   47   48       1
    51   48   49       1
    52   49   50       2
    53   49   51       1
    54    2   52       1
    55    7   53       1
    56    7   54       1
    57    9   55       1
    58   11   56       1
    59   12   57       1
    60   13   58       1
    61   14   59       1
    62   51   85       1
    63   51   84       1
    64   20   60       1
    65   22   61       1
    66   22   62       1
    67   51   83       1
    68   47   82       1
    69   33   63       1
    70   33   64       1
    71   34   65       1
    72   34   66       1
    73   34   67       1
    74   35   68       1
    75   35   69       1
    76   35   70       1
    77   36   71       1
    78   37   72       1
    79   40   73       1
    80   41   74       1
    81   41   75       1
    82   42   76       1
    83   42   77       1
    84   45   78       1
    85   46   79       1
    86   46   80       1
    87   47   81       1
@<TRIPOS>SUBSTRUCTURE
     1 ACO1250     1 GROUP             4 E     ACO     0 **** ACO E1250
