@<TRIPOS>MOLECULE
4xgi_NAD_1_ligand
   70    74     1     0     0
SMALL
NO_CHARGES


@<TRIPOS>ATOM
     1 PA          55.4550    32.5130   129.8180 P.3          1 NAD500   0.0000
     2 O1A         54.0230    32.4760   130.2250 O.co2        1 NAD500   0.0000
     3 O2A         56.6020    31.7230   130.3580 O.co2        1 NAD500  -1.0000
     4 O5B         55.8680    34.1280   130.3070 O.3          1 NAD500   0.0000
     5 C5B         55.1110    35.0590   129.5920 C.3          1 NAD500   0.0000
     6 C4B         55.7710    36.4360   129.8150 C.3          1 NAD500   0.0000
     7 O4B         54.9400    37.4840   129.2630 O.3          1 NAD500   0.0000
     8 C3B         55.8650    36.6820   131.3720 C.3          1 NAD500   0.0000
     9 O3B         57.1140    37.2830   131.5810 O.3          1 NAD500   0.0000
    10 C2B         54.7290    37.6860   131.5790 C.3          1 NAD500   0.0000
    11 O2B         54.9870    38.5940   132.6200 O.3          1 NAD500   0.0000
    12 C1B         54.8590    38.4840   130.2540 C.3          1 NAD500   0.0000
    13 N9A         53.6470    39.3240   130.0610 N.pl3        1 NAD500   0.0000
    14 C8A         52.2810    38.9640   130.0940 C.2          1 NAD500   0.0000
    15 N7A         51.4750    39.9920   129.9080 N.2          1 NAD500   0.0000
    16 C5A         52.3470    41.1130   129.7720 C.ar         1 NAD500   0.0000
    17 C6A         52.1150    42.5130   129.5550 C.ar         1 NAD500   0.0000
    18 N6A         50.8270    42.9760   129.4480 N.pl3        1 NAD500   0.0000
    19 N1A         53.1700    43.3950   129.4420 N.ar         1 NAD500   0.0000
    20 C2A         54.4340    42.8600   129.5510 C.ar         1 NAD500   0.0000
    21 N3A         54.8000    41.5610   129.7620 N.ar         1 NAD500   0.0000
    22 C4A         53.7060    40.7040   129.8710 C.ar         1 NAD500   0.0000
    23 O3          55.2200    32.4770   128.2130 O.3          1 NAD500   0.0000
    24 PN          56.4180    31.9090   127.3250 P.3          1 NAD500   0.0000
    25 O1N         56.4160    30.4700   126.8950 O.co2        1 NAD500   0.0000
    26 O2N         57.5810    32.7490   127.7430 O.co2        1 NAD500  -1.0000
    27 O5D         56.2050    32.5940   125.7230 O.3          1 NAD500   0.0000
    28 C5D         55.8890    33.9060   125.7820 C.3          1 NAD500   0.0000
    29 C4D         55.8070    34.4190   124.3290 C.3          1 NAD500   0.0000
    30 O4D         56.6370    33.6040   123.4860 O.3          1 NAD500   0.0000
    31 C3D         54.3220    34.2280   123.7810 C.3          1 NAD500   0.0000
    32 O3D         54.1410    35.1450   122.7420 O.3          1 NAD500   0.0000
    33 C2D         54.3830    32.8450   123.2140 C.3          1 NAD500   0.0000
    34 O2D         53.4820    32.6310   122.1690 O.3          1 NAD500   0.0000
    35 C1D         55.7730    32.9650   122.5410 C.3          1 NAD500   0.0000
    36 N1N         56.3590    31.5740   122.2170 N.ar         1 NAD500   1.0000
    37 C2N         56.4820    30.6530   123.2370 C.ar         1 NAD500   0.0000
    38 C3N         57.0350    29.4020   122.9110 C.ar         1 NAD500   0.0000
    39 C7N         57.2210    28.3670   123.9890 C.2          1 NAD500   0.0000
    40 O7N         57.7391    27.2788   123.8052 O.2          1 NAD500   0.0000
    41 N7N         56.8152    28.7480   125.2368 N.am         1 NAD500   0.0000
    42 C4N         57.4270    29.1300   121.6170 C.ar         1 NAD500   0.0000
    43 C5N         57.2900    30.0760   120.6400 C.ar         1 NAD500   0.0000
    44 C6N         56.7480    31.3070   120.9490 C.ar         1 NAD500   0.0000
    45 H5B1        54.1698    35.0696   129.9298 H            1 NAD500   0.0000
    46 H5B2        55.1133    34.8298   128.6186 H            1 NAD500   0.0000
    47 H4B         56.6815    36.4581   129.4021 H            1 NAD500   0.0000
    48 H3B         55.7439    35.8444   131.9047 H            1 NAD500   0.0000
    49 H5          57.0202    38.2767   131.5199 H            1 NAD500   0.0000
    50 H2B         53.8381    37.2414   131.6716 H            1 NAD500   0.0000
    51 H7          54.2789    38.5076   133.3208 H            1 NAD500   0.0000
    52 H1B         55.6850    39.0477   130.2583 H            1 NAD500   0.0000
    53 H8A         51.9591    38.0289   130.2426 H            1 NAD500   0.0000
    54 H6A1        50.6566    43.9497   129.2968 H            1 NAD500   0.0000
    55 H6A2        50.0592    42.3395   129.5212 H            1 NAD500   0.0000
    56 H2A         55.1874    43.5118   129.4637 H            1 NAD500   0.0000
    57 H5D1        56.5949    34.4066   126.2831 H            1 NAD500   0.0000
    58 H5D2        55.0074    34.0263   126.2385 H            1 NAD500   0.0000
    59 H4D         56.0831    35.3787   124.2763 H            1 NAD500   0.0000
    60 H3D         53.6322    34.3193   124.4992 H            1 NAD500   0.0000
    61 H17         54.2697    36.0734   123.0906 H            1 NAD500   0.0000
    62 H2D         54.3470    32.1323   123.9146 H            1 NAD500   0.0000
    63 H19         53.2067    31.6697   122.1579 H            1 NAD500   0.0000
    64 H1D         55.7067    33.5141   121.7079 H            1 NAD500   0.0000
    65 H2N         56.1900    30.8663   124.1693 H            1 NAD500   0.0000
    66 H7N1        56.9770    28.1478   126.0201 H            1 NAD500   0.0000
    67 H7N2        56.3563    29.6269   125.3666 H            1 NAD500   0.0000
    68 H4N         57.8137    28.2356   121.3923 H            1 NAD500   0.0000
    69 H5N         57.5815    29.8768   119.7044 H            1 NAD500   0.0000
    70 H6N         56.6429    32.0008   120.2365 H            1 NAD500   0.0000
@<TRIPOS>BOND
     1    1    2      ar
     2    1    3      ar
     3    1    4       1
     4    1   23       1
     5    4    5       1
     6    5    6       1
     7    6    7       1
     8    6    8       1
     9    7   12       1
    10    8    9       1
    11    8   10       1
    12   10   11       1
    13   10   12       1
    14   12   13       1
    15   13   14       1
    16   13   22       1
    17   14   15       2
    18   15   16       1
    19   16   17      ar
    20   16   22      ar
    21   17   18       1
    22   17   19      ar
    23   19   20      ar
    24   20   21      ar
    25   21   22      ar
    26   23   24       1
    27   24   25      ar
    28   24   26      ar
    29   24   27       1
    30   27   28       1
    31   28   29       1
    32   29   30       1
    33   29   31       1
    34   30   35       1
    35   31   32       1
    36   31   33       1
    37   33   34       1
    38   33   35       1
    39   35   36       1
    40   36   37      ar
    41   36   44      ar
    42   37   38      ar
    43   38   39       1
    44   38   42      ar
    45   39   40       2
    46   39   41      am
    47   42   43      ar
    48   43   44      ar
    49   44   70       1
    50    5   45       1
    51    5   46       1
    52    6   47       1
    53    8   48       1
    54    9   49       1
    55   10   50       1
    56   11   51       1
    57   12   52       1
    58   14   53       1
    59   18   54       1
    60   18   55       1
    61   20   56       1
    62   43   69       1
    63   28   57       1
    64   28   58       1
    65   29   59       1
    66   31   60       1
    67   32   61       1
    68   33   62       1
    69   34   63       1
    70   35   64       1
    71   37   65       1
    72   41   66       1
    73   41   67       1
    74   42   68       1
@<TRIPOS>SUBSTRUCTURE
     1 NAD500      1 GROUP             4 A     NAD     0 **** NAD A 500
