@<TRIPOS>MOLECULE
4eso_NAP_3_ligand
   73    77     1     0     0
SMALL
NO_CHARGES


@<TRIPOS>ATOM
     1 PA         -34.4700     7.2960   -18.7280 P.3          1 NAP700   0.0000
     2 O1A        -33.8260     6.3990   -19.7560 O.co2        1 NAP700   0.0000
     3 O2A        -35.7090     6.8460   -17.9960 O.co2        1 NAP700  -1.0000
     4 O5B        -34.7100     8.7600   -19.3580 O.3          1 NAP700   0.0000
     5 C5B        -33.5690     9.5480   -19.6750 C.3          1 NAP700   0.0000
     6 C4B        -33.9080    10.7580   -20.5290 C.3          1 NAP700   0.0000
     7 O4B        -32.7840    10.9610   -21.3930 O.3          1 NAP700   0.0000
     8 C3B        -35.1130    10.5050   -21.4140 C.3          1 NAP700   0.0000
     9 O3B        -35.8670    11.7100   -21.5350 O.3          1 NAP700   0.0000
    10 C2B        -34.5230    10.1680   -22.7650 C.3          1 NAP700   0.0000
    11 O2B        -35.3160    10.5860   -23.8740 O.3          1 NAP700   0.0000
    12 C1B        -33.2050    10.9160   -22.7590 C.3          1 NAP700   0.0000
    13 N9A        -32.2910    10.2010   -23.6850 N.pl3        1 NAP700   0.0000
    14 C8A        -31.9830     8.8880   -23.6490 C.2          1 NAP700   0.0000
    15 N7A        -31.1480     8.5680   -24.6700 N.2          1 NAP700   0.0000
    16 C5A        -30.9250     9.6830   -25.3960 C.ar         1 NAP700   0.0000
    17 C6A        -30.1330    10.0360   -26.5990 C.ar         1 NAP700   0.0000
    18 N6A        -29.3990     9.0890   -27.2550 N.pl3        1 NAP700   0.0000
    19 N1A        -30.1840    11.3290   -27.0170 N.ar         1 NAP700   0.0000
    20 C2A        -30.9120    12.2700   -26.3790 C.ar         1 NAP700   0.0000
    21 N3A        -31.6440    12.0180   -25.2730 N.ar         1 NAP700   0.0000
    22 C4A        -31.6920    10.7610   -24.7460 C.ar         1 NAP700   0.0000
    23 O3         -33.3790     7.6390   -17.6090 O.3          1 NAP700   0.0000
    24 PN         -33.9110     8.1500   -16.1870 P.3          1 NAP700   0.0000
    25 O1N        -34.3130     6.9200   -15.4080 O.co2        1 NAP700   0.0000
    26 O2N        -34.8700     9.3050   -16.3870 O.co2        1 NAP700  -1.0000
    27 O5D        -32.5540     8.7130   -15.5490 O.3          1 NAP700   0.0000
    28 C5D        -32.1370    10.0750   -15.5580 C.3          1 NAP700   0.0000
    29 C4D        -30.6620     9.9820   -15.2050 C.3          1 NAP700   0.0000
    30 O4D        -30.5120     9.3750   -13.9100 O.3          1 NAP700   0.0000
    31 C3D        -29.9860     9.0850   -16.2240 C.3          1 NAP700   0.0000
    32 O3D        -28.8100     9.7320   -16.7260 O.3          1 NAP700   0.0000
    33 C2D        -29.6450     7.8160   -15.4650 C.3          1 NAP700   0.0000
    34 O2D        -28.3690     7.3300   -15.8890 O.3          1 NAP700   0.0000
    35 C1D        -29.6880     8.2010   -13.9800 C.3          1 NAP700   0.0000
    36 N1N        -30.1690     7.1180   -13.0800 N.ar         1 NAP700   1.0000
    37 C2N        -31.4840     6.8580   -12.9170 C.ar         1 NAP700   0.0000
    38 C3N        -31.9240     5.8350   -12.0620 C.ar         1 NAP700   0.0000
    39 C7N        -33.3900     5.5320   -11.8710 C.2          1 NAP700   0.0000
    40 O7N        -33.7280     4.6690   -11.0710 O.2          1 NAP700   0.0000
    41 N7N        -34.2940     6.2030   -12.5820 N.am         1 NAP700   0.0000
    42 C4N        -30.9810     5.0760   -11.3740 C.ar         1 NAP700   0.0000
    43 C5N        -29.6340     5.3560   -11.5480 C.ar         1 NAP700   0.0000
    44 C6N        -29.2670     6.3890   -12.4010 C.ar         1 NAP700   0.0000
    45 P2B        -36.4460     9.6190   -24.4960 P.3          1 NAP700   0.0000
    46 O1X        -36.9250    10.3930   -25.7010 O.co2        1 NAP700   0.0000
    47 O2X        -37.4710     9.5190   -23.3900 O.co2        1 NAP700  -1.0000
    48 O3X        -35.7590     8.3090   -24.7850 O.co2        1 NAP700  -1.0000
    49 H5B1       -32.9156     8.9782   -20.1733 H            1 NAP700   0.0000
    50 H5B2       -33.1528     9.8649   -18.8228 H            1 NAP700   0.0000
    51 H4B        -34.0580    11.5622   -19.9539 H            1 NAP700   0.0000
    52 H3B        -35.6743     9.7557   -21.0626 H            1 NAP700   0.0000
    53 H5         -36.3269    11.7277   -22.4228 H            1 NAP700   0.0000
    54 H2B        -34.3528     9.1843   -22.8233 H            1 NAP700   0.0000
    55 H1B        -33.3513    11.8477   -23.0915 H            1 NAP700   0.0000
    56 H8A        -32.3223     8.2413   -22.9659 H            1 NAP700   0.0000
    57 H6A1       -28.8691     9.3397   -28.0651 H            1 NAP700   0.0000
    58 H6A2       -29.3916     8.1450   -26.9251 H            1 NAP700   0.0000
    59 H2A        -30.9089    13.2009   -26.7442 H            1 NAP700   0.0000
    60 H5D1       -32.6370    10.6087   -14.8760 H            1 NAP700   0.0000
    61 H5D2       -32.2655    10.4844   -16.4613 H            1 NAP700   0.0000
    62 H4D        -30.2454    10.8911   -15.2125 H            1 NAP700   0.0000
    63 H3D        -30.6144     8.8802   -16.9744 H            1 NAP700   0.0000
    64 H16        -29.0645    10.5962   -17.1601 H            1 NAP700   0.0000
    65 H2D        -30.3417     7.1225   -15.6482 H            1 NAP700   0.0000
    66 H18        -27.9958     7.9394   -16.5885 H            1 NAP700   0.0000
    67 H1D        -28.7626     8.4529   -13.6969 H            1 NAP700   0.0000
    68 H2N        -32.1574     7.4046   -13.4148 H            1 NAP700   0.0000
    69 H7N1       -35.2678     6.0096   -12.4627 H            1 NAP700   0.0000
    70 H7N2       -33.9991     6.9003   -13.2352 H            1 NAP700   0.0000
    71 H4N        -31.2710     4.3394   -10.7630 H            1 NAP700   0.0000
    72 H5N        -28.9380     4.8228   -11.0671 H            1 NAP700   0.0000
    73 H6N        -28.2956     6.5980   -12.5140 H            1 NAP700   0.0000
@<TRIPOS>BOND
     1    1    2      ar
     2    1    3      ar
     3    1    4       1
     4    1   23       1
     5    4    5       1
     6    5    6       1
     7    6    7       1
     8    6    8       1
     9    7   12       1
    10    8    9       1
    11    8   10       1
    12   10   11       1
    13   10   12       1
    14   11   45       1
    15   12   13       1
    16   13   14       1
    17   13   22       1
    18   14   15       2
    19   15   16       1
    20   16   17      ar
    21   16   22      ar
    22   17   18       1
    23   17   19      ar
    24   19   20      ar
    25   20   21      ar
    26   21   22      ar
    27   23   24       1
    28   24   25      ar
    29   24   26      ar
    30   24   27       1
    31   27   28       1
    32   28   29       1
    33   29   30       1
    34   29   31       1
    35   30   35       1
    36   31   32       1
    37   31   33       1
    38   33   34       1
    39   33   35       1
    40   35   36       1
    41   36   37      ar
    42   36   44      ar
    43   37   38      ar
    44   38   39       1
    45   38   42      ar
    46   39   40       2
    47   39   41      am
    48   42   43      ar
    49   43   44      ar
    50   45   46      ar
    51   45   47      ar
    52   45   48      ar
    53   43   72       1
    54    5   49       1
    55    5   50       1
    56    6   51       1
    57    8   52       1
    58    9   53       1
    59   10   54       1
    60   12   55       1
    61   14   56       1
    62   18   57       1
    63   18   58       1
    64   20   59       1
    65   44   73       1
    66   28   60       1
    67   28   61       1
    68   29   62       1
    69   31   63       1
    70   32   64       1
    71   33   65       1
    72   34   66       1
    73   35   67       1
    74   37   68       1
    75   41   69       1
    76   41   70       1
    77   42   71       1
@<TRIPOS>SUBSTRUCTURE
     1 NAP700      1 GROUP             4 C     NAP     0 **** NAP C 700
