@<TRIPOS>MOLECULE
2cmk_CDP_1_ligand
   37    38     1     0     0
SMALL
NO_CHARGES


@<TRIPOS>ATOM
     1 O3B         63.2230    54.7240    25.0160 O.co2        1 CDP407   0.0000
     2 PB          61.7650    54.9800    25.7810 P.3          1 CDP407   0.0000
     3 O1B         60.6790    54.0610    25.0720 O.co2        1 CDP407  -1.0000
     4 O2B         61.8540    54.5610    27.3250 O.co2        1 CDP407  -1.0000
     5 O3A         61.3600    56.6450    25.6960 O.3          1 CDP407   0.0000
     6 PA          61.1180    57.4410    24.2320 P.3          1 CDP407   0.0000
     7 O1A         62.1510    56.9780    23.1910 O.co2        1 CDP407   0.0000
     8 O2A         61.1690    58.9710    24.4120 O.co2        1 CDP407  -1.0000
     9 O5'         59.6280    57.1620    23.6080 O.3          1 CDP407   0.0000
    10 C5'         58.9130    56.0870    24.1540 C.3          1 CDP407   0.0000
    11 C4'         57.9010    55.5260    23.2430 C.3          1 CDP407   0.0000
    12 O4'         57.7560    56.2580    22.0340 O.3          1 CDP407   0.0000
    13 C3'         58.6640    54.2530    22.8520 C.3          1 CDP407   0.0000
    14 O3'         57.7760    53.1780    23.0860 O.3          1 CDP407   0.0000
    15 C2'         58.9850    54.4200    21.3950 C.3          1 CDP407   0.0000
    16 O2'         58.8550    53.2380    20.6410 O.3          1 CDP407   0.0000
    17 C1'         57.9650    55.4180    20.9270 C.3          1 CDP407   0.0000
    18 N1          58.4740    56.1940    19.7830 N.pl3        1 CDP407   0.0000
    19 C2          58.1580    55.8840    18.4720 C.2          1 CDP407   0.0000
    20 O2          57.4520    54.9030    18.1980 O.2          1 CDP407   0.0000
    21 N3          58.5760    56.6160    17.4130 N.2          1 CDP407   0.0000
    22 C4          59.3400    57.7030    17.6410 C.2          1 CDP407   0.0000
    23 N4          59.7570    58.4310    16.6030 N.pl3        1 CDP407   0.0000
    24 C5          59.6800    58.0540    18.9430 C.2          1 CDP407   0.0000
    25 C6          59.2240    57.2660    19.9670 C.2          1 CDP407   0.0000
    26 H5'1        58.4512    56.4033    24.9827 H            1 CDP407   0.0000
    27 H5'2        59.5617    55.3633    24.3895 H            1 CDP407   0.0000
    28 H4'         57.0287    55.3374    23.6942 H            1 CDP407   0.0000
    29 H3'         59.4983    54.1538    23.3942 H            1 CDP407   0.0000
    30 H5          58.2245    52.3169    22.8464 H            1 CDP407   0.0000
    31 H2'         59.9057    54.7952    21.2878 H            1 CDP407   0.0000
    32 H7          59.7265    52.7475    20.6371 H            1 CDP407   0.0000
    33 H1'         57.1147    54.9537    20.6794 H            1 CDP407   0.0000
    34 H9          60.3244    59.2402    16.7556 H            1 CDP407   0.0000
    35 H10         59.5021    58.1673    15.6727 H            1 CDP407   0.0000
    36 H11         60.2424    58.8601    19.1270 H            1 CDP407   0.0000
    37 H12         59.4720    57.5155    20.9031 H            1 CDP407   0.0000
@<TRIPOS>BOND
     1    1    2      ar
     2    2    3      ar
     3    2    4      ar
     4    2    5       1
     5    5    6       1
     6    6    7      ar
     7    6    8      ar
     8    6    9       1
     9    9   10       1
    10   10   11       1
    11   11   12       1
    12   11   13       1
    13   12   17       1
    14   13   14       1
    15   13   15       1
    16   15   16       1
    17   15   17       1
    18   17   18       1
    19   18   19       1
    20   18   25       1
    21   19   20       2
    22   19   21       1
    23   21   22       2
    24   22   23       1
    25   22   24       1
    26   24   25       2
    27   25   37       1
    28   24   36       1
    29   23   35       1
    30   10   26       1
    31   10   27       1
    32   11   28       1
    33   13   29       1
    34   14   30       1
    35   15   31       1
    36   16   32       1
    37   17   33       1
    38   23   34       1
@<TRIPOS>SUBSTRUCTURE
     1 CDP407      1 GROUP             4 A     CDP     0 **** CDP A 407
