@<TRIPOS>MOLECULE
3qz1_3QZ_2_ligand
   54    57     1     0     0
SMALL
NO_CHARGES


@<TRIPOS>ATOM
     1 CAA         27.3750    -1.0620    53.1700 C.3          1 3QZ501   0.0000
     2 CAB         28.3270    -7.5290    57.5910 C.3          1 3QZ501   0.0000
     3 CAC         29.2040    -3.2730    55.9150 C.3          1 3QZ501   0.0000
     4 OAD         29.5230    -0.6780    54.1590 O.2          1 3QZ501   0.0000
     5 OAE         28.0190   -12.1180    56.2040 O.2          1 3QZ501   0.0000
     6 OAF         28.5760    -3.4690    52.2100 O.3          1 3QZ501   0.0000
     7 CAG         29.3430   -10.2950    55.9470 C.2          1 3QZ501   0.0000
     8 CAH         30.8990    -8.3710    55.6290 C.3          1 3QZ501   0.0000
     9 CAI         26.8960   -10.0210    56.5340 C.3          1 3QZ501   0.0000
    10 CAJ         30.8170    -7.2070    54.6440 C.3          1 3QZ501   0.0000
    11 CAK         27.3680    -5.6650    55.5030 C.3          1 3QZ501   0.0000
    12 CAL         31.1390    -4.2090    54.1200 C.3          1 3QZ501   0.0000
    13 CAM         27.0070    -8.6870    55.7950 C.3          1 3QZ501   0.0000
    14 CAN         27.4370    -4.4730    54.5410 C.3          1 3QZ501   0.0000
    15 CAO         30.7090    -3.0190    53.2580 C.3          1 3QZ501   0.0000
    16 CAP         28.7630    -1.5020    53.6340 C.2          1 3QZ501   0.0000
    17 CAQ         28.1150   -10.8900    56.2270 C.2          1 3QZ501   0.0000
    18 CAR         29.4990    -8.9190    55.9180 C.2          1 3QZ501   0.0000
    19 CAS         29.8240    -6.1610    55.1560 C.3          1 3QZ501   0.0000
    20 CAT         28.4100    -6.7470    55.1910 C.3          1 3QZ501   0.0000
    21 CAU         29.8280    -4.9890    54.1760 C.3          1 3QZ501   0.0000
    22 CAV         28.3150    -7.9610    56.1220 C.3          1 3QZ501   0.0000
    23 CAW         28.8490    -3.8830    54.5570 C.3          1 3QZ501   0.0000
    24 CAX         29.1860    -2.9500    53.3930 C.3          1 3QZ501   0.0000
    25 HAA1        26.8937    -1.8428    52.7716 H            1 3QZ501   0.0000
    26 HAA2        26.8569    -0.7144    53.9515 H            1 3QZ501   0.0000
    27 HAA3        27.4662    -0.3409    52.4832 H            1 3QZ501   0.0000
    28 HAB1        29.1850    -7.0565    57.7925 H            1 3QZ501   0.0000
    29 HAB2        27.5586    -6.9127    57.7635 H            1 3QZ501   0.0000
    30 HAB3        28.2452    -8.3356    58.1763 H            1 3QZ501   0.0000
    31 HAC1        30.1315    -2.9007    55.8810 H            1 3QZ501   0.0000
    32 HAC2        28.5584    -2.5403    56.1303 H            1 3QZ501   0.0000
    33 HAC3        29.1541    -3.9794    56.6210 H            1 3QZ501   0.0000
    34 HAF         29.1746    -3.3036    51.4262 H            1 3QZ501   0.0000
    35 HAG         30.1343   -10.8777    55.7617 H            1 3QZ501   0.0000
    36 HAH1        31.3119    -8.0530    56.4825 H            1 3QZ501   0.0000
    37 HAH2        31.4633    -9.0971    55.2360 H            1 3QZ501   0.0000
    38 HAI1        26.0674   -10.4960    56.2378 H            1 3QZ501   0.0000
    39 HAI2        26.8493    -9.8516    57.5184 H            1 3QZ501   0.0000
    40 HAJ1        30.5119    -7.5464    53.7542 H            1 3QZ501   0.0000
    41 HAJ2        31.7202    -6.7884    54.5493 H            1 3QZ501   0.0000
    42 HAK1        26.4569    -6.0725    55.4409 H            1 3QZ501   0.0000
    43 HAK2        27.5220    -5.3330    56.4336 H            1 3QZ501   0.0000
    44 HAL1        31.4368    -3.9192    55.0296 H            1 3QZ501   0.0000
    45 HAL2        31.8667    -4.7385    53.6840 H            1 3QZ501   0.0000
    46 HAM1        26.2387    -8.1049    56.0612 H            1 3QZ501   0.0000
    47 HAM2        26.9697    -8.8586    54.8105 H            1 3QZ501   0.0000
    48 HAN1        26.7811    -3.7749    54.8282 H            1 3QZ501   0.0000
    49 HAN2        27.2144    -4.7788    53.6153 H            1 3QZ501   0.0000
    50 HAO1        30.9695    -3.1657    52.3038 H            1 3QZ501   0.0000
    51 HAO2        31.1286    -2.1750    53.5921 H            1 3QZ501   0.0000
    52 HAS         30.0909    -5.8492    56.0679 H            1 3QZ501   0.0000
    53 HAT         28.2133    -7.0772    54.2678 H            1 3QZ501   0.0000
    54 HAU         29.6054    -5.3246    53.2607 H            1 3QZ501   0.0000
@<TRIPOS>BOND
     1    1   16       1
     2    2   22       1
     3    3   23       1
     4    4   16       2
     5    5   17       2
     6    6   24       1
     7    7   17       1
     8    7   18       2
     9    8   10       1
    10    8   18       1
    11    9   13       1
    12    9   17       1
    13   10   19       1
    14   11   14       1
    15   11   20       1
    16   12   15       1
    17   12   21       1
    18   13   22       1
    19   14   23       1
    20   15   24       1
    21   16   24       1
    22   18   22       1
    23   19   20       1
    24   19   21       1
    25   20   22       1
    26   21   23       1
    27   23   24       1
    28    1   25       1
    29    1   26       1
    30    1   27       1
    31    2   28       1
    32    2   29       1
    33    2   30       1
    34    3   31       1
    35    3   32       1
    36    3   33       1
    37    6   34       1
    38    7   35       1
    39    8   36       1
    40    8   37       1
    41    9   38       1
    42    9   39       1
    43   10   40       1
    44   10   41       1
    45   11   42       1
    46   11   43       1
    47   12   44       1
    48   12   45       1
    49   13   46       1
    50   13   47       1
    51   14   48       1
    52   14   49       1
    53   15   50       1
    54   15   51       1
    55   19   52       1
    56   20   53       1
    57   21   54       1
@<TRIPOS>SUBSTRUCTURE
     1 3QZ501      1 GROUP             4 B     3QZ     0 **** 3QZ B 501
