@<TRIPOS>MOLECULE
4i5v_B4P_1_ligand
   77    82     1     0     0
SMALL
NO_CHARGES


@<TRIPOS>ATOM
     1 PA          35.0500   -13.7140    22.8080 P.3          1 B4P401   0.0000
     2 O1A         35.9680   -14.4770    23.7460 O.co2        1 B4P401   0.0000
     3 O2A         35.4180   -12.2520    22.6440 O.co2        1 B4P401  -1.0000
     4 O3A         35.2610   -14.3260    21.3780 O.3          1 B4P401   0.0000
     5 PB          34.1170   -14.4820    20.2810 P.3          1 B4P401   0.0000
     6 O1B         33.3560   -15.7640    20.5900 O.co2        1 B4P401   0.0000
     7 O2B         34.8720   -14.4430    18.9100 O.co2        1 B4P401  -1.0000
     8 O3B         33.0270   -13.3710    20.2710 O.3          1 B4P401   0.0000
     9 PG          33.0400   -12.3130    19.1390 P.3          1 B4P401   0.0000
    10 O1G         31.7250   -11.4810    19.2400 O.co2        1 B4P401   0.0000
    11 O2G         34.3950   -11.4880    19.2120 O.co2        1 B4P401  -1.0000
    12 O3G         32.9300   -13.1230    17.8310 O.3          1 B4P401   0.0000
    13 PD          32.0630   -12.8060    16.5760 P.3          1 B4P401   0.0000
    14 O1D         32.3870   -11.4230    16.0410 O.co2        1 B4P401   0.0000
    15 O2D         32.5450   -13.8740    15.5730 O.co2        1 B4P401  -1.0000
    16 O5E         33.4860   -13.8850    23.2470 O.3          1 B4P401   0.0000
    17 C5E         33.0170   -13.1930    24.3440 C.3          1 B4P401   0.0000
    18 C4E         31.5820   -12.9150    24.3140 C.3          1 B4P401   0.0000
    19 O4E         31.3710   -11.7930    25.0900 O.3          1 B4P401   0.0000
    20 C3E         31.1250   -12.5400    22.9330 C.3          1 B4P401   0.0000
    21 O3E         29.7840   -12.6720    22.8050 O.3          1 B4P401   0.0000
    22 C2E         31.5040   -11.1490    22.8250 C.3          1 B4P401   0.0000
    23 O2E         30.6070   -10.5040    21.8970 O.3          1 B4P401   0.0000
    24 C1E         31.3480   -10.6310    24.2110 C.3          1 B4P401   0.0000
    25 N9A         32.2460    -9.5820    24.5670 N.pl3        1 B4P401   0.0000
    26 C8A         33.4470    -9.2920    24.0500 C.2          1 B4P401   0.0000
    27 N7A         33.9650    -8.2310    24.6860 N.2          1 B4P401   0.0000
    28 C5A         33.0890    -7.8420    25.6430 C.ar         1 B4P401   0.0000
    29 C6A         33.0930    -6.8260    26.5930 C.ar         1 B4P401   0.0000
    30 N6A         34.1760    -5.9110    26.7310 N.pl3        1 B4P401   0.0000
    31 N1A         32.0240    -6.7260    27.3820 N.ar         1 B4P401   0.0000
    32 C2A         30.9920    -7.5690    27.2790 C.ar         1 B4P401   0.0000
    33 N3A         30.9750    -8.5490    26.3770 N.ar         1 B4P401   0.0000
    34 C4A         32.0100    -8.7030    25.5480 C.ar         1 B4P401   0.0000
    35 O5F         30.4920   -12.9560    16.7830 O.3          1 B4P401   0.0000
    36 C5F         29.8970   -14.1100    17.1880 C.3          1 B4P401   0.0000
    37 C4F         28.8790   -13.9460    18.3060 C.3          1 B4P401   0.0000
    38 O4F         27.9260   -15.0370    18.2140 O.3          1 B4P401   0.0000
    39 C3F         29.3480   -13.9650    19.7110 C.3          1 B4P401   0.0000
    40 O3F         28.4390   -13.2080    20.4310 O.3          1 B4P401   0.0000
    41 C2F         29.2480   -15.3550    20.0710 C.3          1 B4P401   0.0000
    42 O2F         29.0210   -15.5440    21.3820 O.3          1 B4P401   0.0000
    43 C1F         28.0160   -15.8090    19.3630 C.3          1 B4P401   0.0000
    44 N9B         27.9750   -17.2650    19.0790 N.pl3        1 B4P401   0.0000
    45 C8B         28.8510   -18.2460    18.8270 C.2          1 B4P401   0.0000
    46 N7B         28.1240   -19.3680    18.6510 N.2          1 B4P401   0.0000
    47 C5B         26.8030   -19.0560    18.8000 C.ar         1 B4P401   0.0000
    48 C6B         25.6250   -19.7720    18.7340 C.ar         1 B4P401   0.0000
    49 N6B         25.6520   -21.1680    18.4510 N.pl3        1 B4P401   0.0000
    50 N1B         24.4500   -19.1550    18.9440 N.ar         1 B4P401   0.0000
    51 C2B         24.3830   -17.8530    19.2130 C.ar         1 B4P401   0.0000
    52 N3B         25.5100   -17.1410    19.2760 N.ar         1 B4P401   0.0000
    53 C4B         26.7100   -17.7160    19.0750 C.ar         1 B4P401   0.0000
    54 H5E1        33.5036   -12.3209    24.3952 H            1 B4P401   0.0000
    55 H5E2        33.2140   -13.7331    25.1622 H            1 B4P401   0.0000
    56 H4E         31.0605   -13.6935    24.6632 H            1 B4P401   0.0000
    57 H3E         31.5997   -13.0883    22.2445 H            1 B4P401   0.0000
    58 H5          29.5605   -12.9010    21.8576 H            1 B4P401   0.0000
    59 H2E         32.4522   -11.0629    22.5192 H            1 B4P401   0.0000
    60 H7          30.9814   -10.5686    20.9720 H            1 B4P401   0.0000
    61 H1E         30.4260   -10.2483    24.2695 H            1 B4P401   0.0000
    62 H8A         33.8895    -9.7901    23.3043 H            1 B4P401   0.0000
    63 H6A1        34.1394    -5.1943    27.4274 H            1 B4P401   0.0000
    64 H6A2        34.9729    -5.9854    26.1315 H            1 B4P401   0.0000
    65 H2A         30.2120    -7.4612    27.8954 H            1 B4P401   0.0000
    66 H5F1        30.6114   -14.7328    17.5070 H            1 B4P401   0.0000
    67 H5F2        29.4312   -14.5127    16.4001 H            1 B4P401   0.0000
    68 H4F         28.3862   -13.0892    18.1544 H            1 B4P401   0.0000
    69 H3F         30.2818   -13.6187    19.8012 H            1 B4P401   0.0000
    70 H17         28.4216   -12.2757    20.0699 H            1 B4P401   0.0000
    71 H2F         30.0508   -15.8669    19.7651 H            1 B4P401   0.0000
    72 H19         28.0354   -15.5647    21.5501 H            1 B4P401   0.0000
    73 H1F         27.2313   -15.5881    19.9422 H            1 B4P401   0.0000
    74 H8B         29.8464   -18.1630    18.7789 H            1 B4P401   0.0000
    75 H6B1        24.7974   -21.6852    18.4036 H            1 B4P401   0.0000
    76 H6B2        26.5255   -21.6307    18.2998 H            1 B4P401   0.0000
    77 H2B         23.4980   -17.4133    19.3662 H            1 B4P401   0.0000
@<TRIPOS>BOND
     1    1    2      ar
     2    1    3      ar
     3    1    4       1
     4    1   16       1
     5    4    5       1
     6    5    6      ar
     7    5    7      ar
     8    5    8       1
     9    8    9       1
    10    9   10      ar
    11    9   11      ar
    12    9   12       1
    13   12   13       1
    14   13   14      ar
    15   13   15      ar
    16   13   35       1
    17   16   17       1
    18   17   18       1
    19   18   19       1
    20   18   20       1
    21   19   24       1
    22   20   21       1
    23   20   22       1
    24   22   23       1
    25   22   24       1
    26   24   25       1
    27   25   26       1
    28   25   34       1
    29   26   27       2
    30   27   28       1
    31   28   29      ar
    32   28   34      ar
    33   29   30       1
    34   29   31      ar
    35   31   32      ar
    36   32   33      ar
    37   33   34      ar
    38   35   36       1
    39   36   37       1
    40   37   38       1
    41   37   39       1
    42   38   43       1
    43   39   40       1
    44   39   41       1
    45   41   42       1
    46   41   43       1
    47   43   44       1
    48   44   45       1
    49   44   53       1
    50   45   46       2
    51   46   47       1
    52   47   48      ar
    53   47   53      ar
    54   48   49       1
    55   48   50      ar
    56   50   51      ar
    57   51   52      ar
    58   52   53      ar
    59   51   77       1
    60   49   76       1
    61   49   75       1
    62   45   74       1
    63   17   54       1
    64   17   55       1
    65   18   56       1
    66   20   57       1
    67   21   58       1
    68   22   59       1
    69   23   60       1
    70   24   61       1
    71   26   62       1
    72   30   63       1
    73   30   64       1
    74   32   65       1
    75   36   66       1
    76   36   67       1
    77   37   68       1
    78   39   69       1
    79   40   70       1
    80   41   71       1
    81   42   72       1
    82   43   73       1
@<TRIPOS>SUBSTRUCTURE
     1 B4P401      1 GROUP             4 A     B4P     0 **** B4P A 401
