@<TRIPOS>MOLECULE
3bbh_SFG_2_ligand
   51    53     1     0     0
SMALL
NO_CHARGES


@<TRIPOS>ATOM
     1 N           22.4420    66.3770    27.0920 N.4          1 SFG206   1.0000
     2 CA          22.3050    64.9200    27.1660 C.3          1 SFG206   0.0000
     3 C           23.1760    64.3680    28.3300 C.2          1 SFG206   0.0000
     4 O           22.8290    63.4240    28.9680 O.co2        1 SFG206   0.0000
     5 OXT         24.3860    64.9920    28.6780 O.co2        1 SFG206  -1.0000
     6 CB          22.7100    64.3940    25.7700 C.3          1 SFG206   0.0000
     7 CG          22.5020    62.8890    25.4910 C.3          1 SFG206   0.0000
     8 CD          23.6490    62.5220    24.5080 C.3          1 SFG206   0.0000
     9 NE          23.2620    62.8010    23.1130 N.4          1 SFG206   1.0000
    10 C5'         24.1760    61.0710    24.6400 C.3          1 SFG206   0.0000
    11 C4'         25.0340    60.7940    25.9070 C.3          1 SFG206   0.0000
    12 O4'         26.3000    61.5100    25.8690 O.3          1 SFG206   0.0000
    13 C3'         24.3880    61.2140    27.2350 C.3          1 SFG206   0.0000
    14 O3'         23.5920    60.1700    27.7350 O.3          1 SFG206   0.0000
    15 C2'         25.5780    61.3150    28.1470 C.3          1 SFG206   0.0000
    16 O2'         25.8580    60.0130    28.6200 O.3          1 SFG206   0.0000
    17 C1'         26.7170    61.7850    27.2460 C.3          1 SFG206   0.0000
    18 N9          27.0220    63.2220    27.3420 N.pl3        1 SFG206   0.0000
    19 C8          26.4740    64.2940    26.4590 C.2          1 SFG206   0.0000
    20 N7          27.0720    65.5510    26.8960 N.2          1 SFG206   0.0000
    21 C5          27.9740    65.2740    28.0200 C.ar         1 SFG206   0.0000
    22 C6          28.8570    66.1760    28.8600 C.ar         1 SFG206   0.0000
    23 N6          28.9150    67.6080    28.6220 N.pl3        1 SFG206   0.0000
    24 N1          29.6540    65.6040    29.9290 N.ar         1 SFG206   0.0000
    25 C2          29.6220    64.1250    30.2080 C.ar         1 SFG206   0.0000
    26 N3          28.7600    63.2460    29.3870 N.ar         1 SFG206   0.0000
    27 C4          27.9440    63.8340    28.2910 C.ar         1 SFG206   0.0000
    28 H1          22.8070    66.6324    26.1967 H            1 SFG206   0.0000
    29 H2          21.5465    66.8030    27.2208 H            1 SFG206   0.0000
    30 HA          21.3470    64.6899    27.3369 H            1 SFG206   0.0000
    31 HB1         23.6825    64.5907    25.6456 H            1 SFG206   0.0000
    32 HB2         22.1779    64.9013    25.0921 H            1 SFG206   0.0000
    33 HG1         21.6092    62.7261    25.0711 H            1 SFG206   0.0000
    34 HG2         22.5750    62.3583    26.3354 H            1 SFG206   0.0000
    35 HD          24.4158    63.1276    24.7209 H            1 SFG206   0.0000
    36 HE1         24.0156    62.5567    22.5028 H            1 SFG206   0.0000
    37 HE2         22.4537    62.2615    22.8770 H            1 SFG206   0.0000
    38 H5'1        24.7364    60.8705    23.8364 H            1 SFG206   0.0000
    39 H5'2        23.3880    60.4556    24.6588 H            1 SFG206   0.0000
    40 H4'         25.2280    59.8138    25.9476 H            1 SFG206   0.0000
    41 H3'         23.8871    62.0764    27.1616 H            1 SFG206   0.0000
    42 H15         23.1759    60.4527    28.5993 H            1 SFG206   0.0000
    43 H2'         25.4141    61.9538    28.8987 H            1 SFG206   0.0000
    44 H17         26.8382    59.9268    28.7985 H            1 SFG206   0.0000
    45 H1'         27.5411    61.2578    27.4531 H            1 SFG206   0.0000
    46 H19         25.8216    64.1734    25.7108 H            1 SFG206   0.0000
    47 H20         29.5040    68.1854    29.1875 H            1 SFG206   0.0000
    48 H21         28.3660    68.0163    27.8927 H            1 SFG206   0.0000
    49 H22         30.1795    63.7392    30.9431 H            1 SFG206   0.0000
    50 H23         23.0660    66.6899    27.8080 H            1 SFG206   0.0000
    51 HE3         23.0542    63.7740    23.0130 H            1 SFG206   0.0000
@<TRIPOS>BOND
     1    1    2       1
     2    2    3       1
     3    2    6       1
     4    3    4      ar
     5    3    5      ar
     6    6    7       1
     7    7    8       1
     8    8    9       1
     9    8   10       1
    10   10   11       1
    11   11   12       1
    12   11   13       1
    13   12   17       1
    14   13   14       1
    15   13   15       1
    16   15   16       1
    17   15   17       1
    18   17   18       1
    19   18   19       1
    20   18   27       1
    21   19   20       2
    22   20   21       1
    23   21   22      ar
    24   21   27      ar
    25   22   23       1
    26   22   24      ar
    27   24   25      ar
    28   25   26      ar
    29   26   27      ar
    30    1   28       1
    31    1   29       1
    32    2   30       1
    33    1   50       1
    34    6   31       1
    35    6   32       1
    36    7   33       1
    37    7   34       1
    38    8   35       1
    39    9   36       1
    40    9   37       1
    41   10   38       1
    42   10   39       1
    43   11   40       1
    44   13   41       1
    45   14   42       1
    46   15   43       1
    47   16   44       1
    48   17   45       1
    49   19   46       1
    50   23   47       1
    51   23   48       1
    52   25   49       1
    53    9   51       1
@<TRIPOS>SUBSTRUCTURE
     1 SFG206      1 GROUP             4 B     SFG     0 **** SFG B 206
