@<TRIPOS>MOLECULE
4lcn_GNG_1_ligand
   32    34     1     0     0
SMALL
NO_CHARGES


@<TRIPOS>ATOM
     1 O5'         20.3090    30.6120    42.1320 O.3          1 GNG202   0.0000
     2 C5'         20.9620    30.7710    43.4750 C.3          1 GNG202   0.0000
     3 C4'         22.1090    29.7600    43.6670 C.3          1 GNG202   0.0000
     4 O4'         23.4610    30.2460    44.0260 O.3          1 GNG202   0.0000
     5 C1'         23.6530    30.3510    45.4700 C.3          1 GNG202   0.0000
     6 N9          23.3960    31.7960    45.7410 N.pl3        1 GNG202   0.0000
     7 C8          22.2540    32.4530    45.4110 C.2          1 GNG202   0.0000
     8 N7          22.2700    33.7540    45.6640 N.2          1 GNG202   0.0000
     9 C5          23.4950    34.0130    46.1490 C.2          1 GNG202   0.0000
    10 C4          24.2650    32.7160    46.2030 C.2          1 GNG202   0.0000
    11 N3          25.5360    32.7360    46.6910 N.2          1 GNG202   0.0000
    12 C2          26.0920    33.9390    47.1260 C.2          1 GNG202   0.0000
    13 N1          25.4710    35.1880    47.1010 N.pl3        1 GNG202   0.0000
    14 C6          24.1800    35.2900    46.5910 C.2          1 GNG202   0.0000
    15 O6          23.5220    36.3600    46.5600 O.2          1 GNG202   0.0000
    16 N2          27.3420    33.9670    47.5960 N.pl3        1 GNG202   0.0000
    17 C2'         22.6760    29.3170    46.0110 C.3          1 GNG202   0.0000
    18 C3'         21.6030    29.0770    44.9220 C.3          1 GNG202   0.0000
    19 O3'         21.2080    27.7100    44.6610 O.3          1 GNG202   0.0000
    20 H5'         20.3938    31.4650    41.6170 H            1 GNG202   0.0000
    21 H5'1        20.2771    30.6252    44.1889 H            1 GNG202   0.0000
    22 H5'2        21.3296    31.6979    43.5501 H            1 GNG202   0.0000
    23 H4'         22.1512    29.1173    42.9021 H            1 GNG202   0.0000
    24 H1'         24.5914    30.1096    45.7172 H            1 GNG202   0.0000
    25 H6          21.4633    31.9915    45.0088 H            1 GNG202   0.0000
    26 H7          27.7398    34.8299    47.9076 H            1 GNG202   0.0000
    27 H8          27.8800    33.1250    47.6362 H            1 GNG202   0.0000
    28 H2'1        22.2447    29.6588    46.8459 H            1 GNG202   0.0000
    29 H2'2        23.1575    28.4634    46.2099 H            1 GNG202   0.0000
    30 H3'         20.7808    29.5681    45.2098 H            1 GNG202   0.0000
    31 H12         21.7597    27.3406    43.9133 H            1 GNG202   0.0000
    32 H13         25.9464    35.9980    47.4444 H            1 GNG202   0.0000
@<TRIPOS>BOND
     1    1    2       1
     2    2    3       1
     3    3    4       1
     4    3   18       1
     5    4    5       1
     6    5    6       1
     7    5   17       1
     8    6    7       1
     9    6   10       1
    10    7    8       2
    11    8    9       1
    12    9   10       2
    13    9   14       1
    14   10   11       1
    15   11   12       2
    16   12   13       1
    17   12   16       1
    18   13   14       1
    19   14   15       2
    20   17   18       1
    21   18   19       1
    22    1   20       1
    23    2   21       1
    24    2   22       1
    25    3   23       1
    26    5   24       1
    27    7   25       1
    28   19   31       1
    29   16   26       1
    30   16   27       1
    31   17   28       1
    32   17   29       1
    33   18   30       1
    34   13   32       1
@<TRIPOS>SUBSTRUCTURE
     1 GNG202      1 GROUP             4 A     GNG     0 **** GNG A 202
