@<TRIPOS>MOLECULE
3kfl_ME8_1_ligand
   54    56     1     0     0
SMALL
NO_CHARGES


@<TRIPOS>ATOM
     1 O           30.6040    45.6850    -7.9740 O.2          1 ME8801   0.0000
     2 N1          38.7520    46.8300    -0.9330 N.ar         1 ME8801   0.0000
     3 O1          31.3010    43.5580    -8.5520 O.3          1 ME8801   0.0000
     4 P1          32.9160    43.8500    -8.4650 P.3          1 ME8801   0.0000
     5 C2          37.7020    46.2700    -0.3450 C.ar         1 ME8801   0.0000
     6 N2          29.1580    42.8400    -9.5600 N.4          1 ME8801   1.0000
     7 N3          36.7550    45.6390    -1.0360 N.ar         1 ME8801   0.0000
     8 C4          36.8200    45.5570    -2.3710 C.ar         1 ME8801   0.0000
     9 C5          37.8890    46.1280    -3.0330 C.ar         1 ME8801   0.0000
    10 C6          38.8720    46.7740    -2.2730 C.ar         1 ME8801   0.0000
    11 N6          39.9180    47.3330    -2.8520 N.pl3        1 ME8801   0.0000
    12 N7          37.7070    45.9060    -4.3400 N.2          1 ME8801   0.0000
    13 C8          36.5720    45.2150    -4.4870 C.2          1 ME8801   0.0000
    14 C9          30.3900    44.5600    -8.4120 C.2          1 ME8801   0.0000
    15 N9          36.0270    45.0060    -3.2860 N.pl3        1 ME8801   0.0000
    16 CA          28.9950    44.0850    -8.7640 C.3          1 ME8801   0.0000
    17 CB          28.2760    43.7970    -7.4550 C.3          1 ME8801   0.0000
    18 SD          26.1120    42.9070    -6.0180 S.3          1 ME8801   0.0000
    19 CE          24.4470    42.4670    -6.4620 C.3          1 ME8801   0.0000
    20 CG          26.8400    43.3420    -7.6360 C.3          1 ME8801   0.0000
    21 C1'         34.7700    44.2650    -2.9960 C.3          1 ME8801   0.0000
    22 O1S         33.4890    42.6630    -9.1090 O.co2        1 ME8801   0.0000
    23 C2'         33.7090    45.1650    -2.3890 C.3          1 ME8801   0.0000
    24 O2'         32.7280    44.3130    -1.8020 O.3          1 ME8801   0.0000
    25 O2S         33.3090    45.2030    -8.9450 O.co2        1 ME8801  -1.0000
    26 C3'         33.1730    45.8100    -3.6590 C.3          1 ME8801   0.0000
    27 O3'         31.8920    46.3390    -3.4410 O.3          1 ME8801   0.0000
    28 C4'         33.0360    44.5720    -4.5620 C.3          1 ME8801   0.0000
    29 O4'         34.1870    43.7580    -4.2300 O.3          1 ME8801   0.0000
    30 C5'         33.0640    44.9360    -6.0650 C.3          1 ME8801   0.0000
    31 O5'         33.2010    43.7530    -6.8640 O.3          1 ME8801   0.0000
    32 H1          37.6195    46.3239     0.6501 H            1 ME8801   0.0000
    33 H2          29.1683    42.0507    -8.9460 H            1 ME8801   0.0000
    34 H3          28.3964    42.7528   -10.2022 H            1 ME8801   0.0000
    35 H4          40.0174    47.2975    -3.8464 H            1 ME8801   0.0000
    36 H5          40.6112    47.7920    -2.2963 H            1 ME8801   0.0000
    37 H6          36.1916    44.9041    -5.3580 H            1 ME8801   0.0000
    38 HA          28.5065    44.7806    -9.2907 H            1 ME8801   0.0000
    39 HB1         28.2758    44.6318    -6.9045 H            1 ME8801   0.0000
    40 HB2         28.7763    43.0788    -6.9713 H            1 ME8801   0.0000
    41 HE1         23.9410    42.2052    -5.6402 H            1 ME8801   0.0000
    42 HE2         23.9992    43.2499    -6.8939 H            1 ME8801   0.0000
    43 HE3         24.4646    41.6985    -7.1016 H            1 ME8801   0.0000
    44 HG1         26.8196    42.5409    -8.2342 H            1 ME8801   0.0000
    45 HG2         26.3084    44.0809    -8.0501 H            1 ME8801   0.0000
    46 H1'         34.9621    43.5042    -2.3761 H            1 ME8801   0.0000
    47 H2'         34.0847    45.8295    -1.7431 H            1 ME8801   0.0000
    48 H17         33.1566    43.7467    -1.0981 H            1 ME8801   0.0000
    49 H3'         33.8044    46.4874    -4.0365 H            1 ME8801   0.0000
    50 H19         31.7522    47.1299    -4.0367 H            1 ME8801   0.0000
    51 H4'         32.1933    44.0798    -4.3439 H            1 ME8801   0.0000
    52 H5'1        33.8375    45.5446    -6.2422 H            1 ME8801   0.0000
    53 H5'2        32.2122    45.4004    -6.3074 H            1 ME8801   0.0000
    54 H23         30.0189    42.8790   -10.0672 H            1 ME8801   0.0000
@<TRIPOS>BOND
     1    1   14       2
     2    2    5      ar
     3    2   10      ar
     4    3    4       1
     5    3   14       1
     6    4   22      ar
     7    4   25      ar
     8    4   31       1
     9    5    7      ar
    10    6   16       1
    11    7    8      ar
    12    8    9      ar
    13    8   15       1
    14    9   10      ar
    15    9   12       1
    16   10   11       1
    17   12   13       2
    18   13   15       1
    19   14   16       1
    20   15   21       1
    21   16   17       1
    22   17   20       1
    23   18   19       1
    24   18   20       1
    25   21   23       1
    26   21   29       1
    27   23   24       1
    28   23   26       1
    29   26   27       1
    30   26   28       1
    31   28   29       1
    32   28   30       1
    33   30   31       1
    34    5   32       1
    35    6   33       1
    36    6   34       1
    37   11   35       1
    38   11   36       1
    39   13   37       1
    40   16   38       1
    41   17   39       1
    42   17   40       1
    43   19   41       1
    44   19   42       1
    45   19   43       1
    46   20   44       1
    47   20   45       1
    48   21   46       1
    49    6   54       1
    50   23   47       1
    51   24   48       1
    52   26   49       1
    53   27   50       1
    54   28   51       1
    55   30   52       1
    56   30   53       1
@<TRIPOS>SUBSTRUCTURE
     1 ME8801      1 GROUP             4 A     ME8     0 **** ME8 A 801
