@<TRIPOS>MOLECULE
2yyl_FAD_1_ligand
   84    89     1     0     0
SMALL
NO_CHARGES


@<TRIPOS>ATOM
     1 PA          18.6560    13.6290     3.0840 P.3          1 FAD600   0.0000
     2 O1A         19.4740    12.4250     3.3450 O.co2        1 FAD600   0.0000
     3 O2A         19.3540    14.9110     2.8390 O.co2        1 FAD600  -1.0000
     4 O5B         17.6050    13.3810     1.8730 O.3          1 FAD600   0.0000
     5 C5B         17.9110    12.6220     0.7060 C.3          1 FAD600   0.0000
     6 C4B         18.0430    11.1710     1.1230 C.3          1 FAD600   0.0000
     7 O4B         18.5600    10.2610     0.1670 O.3          1 FAD600   0.0000
     8 C3B         16.7710    10.4340     1.5010 C.3          1 FAD600   0.0000
     9 O3B         15.9450    10.1070     0.3600 O.3          1 FAD600   0.0000
    10 C2B         17.4840     9.1810     1.9740 C.3          1 FAD600   0.0000
    11 O2B         16.5970     8.0740     1.9570 O.3          1 FAD600   0.0000
    12 C1B         18.5840     9.0170     0.9130 C.3          1 FAD600   0.0000
    13 N9A         19.8740     8.9210     1.6210 N.pl3        1 FAD600   0.0000
    14 C8A         20.7000     9.9350     1.8940 C.2          1 FAD600   0.0000
    15 N7A         21.7390     9.4730     2.5890 N.2          1 FAD600   0.0000
    16 C5A         21.5680     8.1670     2.7490 C.ar         1 FAD600   0.0000
    17 C6A         22.2910     7.1700     3.3800 C.ar         1 FAD600   0.0000
    18 N6A         23.4140     7.4760     4.0280 N.pl3        1 FAD600   0.0000
    19 N1A         21.8220     5.9090     3.3700 N.ar         1 FAD600   0.0000
    20 C2A         20.6770     5.6000     2.7680 C.ar         1 FAD600   0.0000
    21 N3A         19.9600     6.5330     2.1560 N.ar         1 FAD600   0.0000
    22 C4A         20.3790     7.8080     2.1300 C.ar         1 FAD600   0.0000
    23 N1          15.8900    18.9370    12.0490 N.2          1 FAD600   0.0000
    24 C2          16.2830    19.5550    13.2460 C.2          1 FAD600   0.0000
    25 O2          17.4000    19.3440    13.7170 O.2          1 FAD600   0.0000
    26 N3          15.3820    20.4060    13.9030 N.pl3        1 FAD600   0.0000
    27 C4          14.1010    20.6290    13.3660 C.2          1 FAD600   0.0000
    28 O4          13.3060    21.3650    13.9500 O.2          1 FAD600   0.0000
    29 C4X         13.7180    20.0160    12.1770 C.2          1 FAD600   0.0000
    30 N5          12.4490    20.2610    11.6300 N.2          1 FAD600   0.0000
    31 C5X         12.1060    19.7480    10.3670 C.ar         1 FAD600   0.0000
    32 C6          10.9000    20.1170     9.7710 C.ar         1 FAD600   0.0000
    33 C7          10.5460    19.6020     8.5220 C.ar         1 FAD600   0.0000
    34 C7M          9.2300    20.0490     7.8800 C.3          1 FAD600   0.0000
    35 C8          11.4030    18.7020     7.8700 C.ar         1 FAD600   0.0000
    36 C8M         11.0300    18.1010     6.5110 C.3          1 FAD600   0.0000
    37 C9          12.6120    18.3360     8.4680 C.ar         1 FAD600   0.0000
    38 C9A         12.9750    18.8610     9.7160 C.ar         1 FAD600   0.0000
    39 N10         14.2450    18.5950    10.2830 N.pl3        1 FAD600   0.0000
    40 C10         14.6100    19.1690    11.5160 C.2          1 FAD600   0.0000
    41 C1'         15.2600    17.7890     9.5570 C.3          1 FAD600   0.0000
    42 C2'         14.9290    16.2960     9.5230 C.3          1 FAD600   0.0000
    43 O2'         15.3930    15.6780    10.7270 O.3          1 FAD600   0.0000
    44 C3'         15.6030    15.6690     8.2990 C.3          1 FAD600   0.0000
    45 O3'         14.8440    15.9950     7.1320 O.3          1 FAD600   0.0000
    46 C4'         15.7420    14.1470     8.4070 C.3          1 FAD600   0.0000
    47 O4'         16.6170    13.8320     9.4960 O.3          1 FAD600   0.0000
    48 C5'         16.3180    13.5670     7.1080 C.3          1 FAD600   0.0000
    49 O5'         17.5750    14.1700     6.7760 O.3          1 FAD600   0.0000
    50 P           17.7690    14.9800     5.4010 P.3          1 FAD600   0.0000
    51 O1P         16.6280    15.9150     5.2610 O.co2        1 FAD600   0.0000
    52 O2P         19.1430    15.5320     5.3610 O.co2        1 FAD600  -1.0000
    53 O3P         17.6160    13.8140     4.3050 O.3          1 FAD600   0.0000
    54 H5B1        18.7706    12.9416     0.3074 H            1 FAD600   0.0000
    55 H5B2        17.1762    12.7181     0.0346 H            1 FAD600   0.0000
    56 H4B         18.6496    11.1440     1.9176 H            1 FAD600   0.0000
    57 H3B         16.2613    10.8892     2.2311 H            1 FAD600   0.0000
    58 H5          15.1253     9.6249     0.6692 H            1 FAD600   0.0000
    59 H2B         17.8780     9.3127     2.8836 H            1 FAD600   0.0000
    60 H7          15.6635     8.3923     2.1218 H            1 FAD600   0.0000
    61 H1B         18.4207     8.2251     0.3246 H            1 FAD600   0.0000
    62 H8A         20.5610    10.8869     1.6209 H            1 FAD600   0.0000
    63 H6A1        23.9390     6.7581     4.4851 H            1 FAD600   0.0000
    64 H6A2        23.7320     8.4236     4.0573 H            1 FAD600   0.0000
    65 H2A         20.3532     4.6539     2.7769 H            1 FAD600   0.0000
    66 H13         15.6509    20.8552    14.7550 H            1 FAD600   0.0000
    67 H14         10.2866    20.7526    10.2398 H            1 FAD600   0.0000
    68 H7M1         9.1199    19.5960     6.9953 H            1 FAD600   0.0000
    69 H7M2         8.4670    19.8029     8.4778 H            1 FAD600   0.0000
    70 H7M3         9.2435    21.0401     7.7476 H            1 FAD600   0.0000
    71 H8M1        11.7584    17.4871     6.2068 H            1 FAD600   0.0000
    72 H8M2        10.1758    17.5881     6.5965 H            1 FAD600   0.0000
    73 H8M3        10.9123    18.8355     5.8427 H            1 FAD600   0.0000
    74 H21         13.2223    17.6952     8.0023 H            1 FAD600   0.0000
    75 H1'1        16.1440    17.9087    10.0089 H            1 FAD600   0.0000
    76 H1'2        15.3185    18.1234     8.6164 H            1 FAD600   0.0000
    77 H2'         13.9385    16.1785     9.4515 H            1 FAD600   0.0000
    78 H25         14.6195    15.2694    11.2114 H            1 FAD600   0.0000
    79 H3'         16.5165    16.0644     8.2033 H            1 FAD600   0.0000
    80 H27         15.4536    16.0440     6.3408 H            1 FAD600   0.0000
    81 H4'         14.8428    13.7444     8.5785 H            1 FAD600   0.0000
    82 H29         16.5461    14.5419    10.1967 H            1 FAD600   0.0000
    83 H5'1        15.6714    13.7325     6.3634 H            1 FAD600   0.0000
    84 H5'2        16.4500    12.5823     7.2222 H            1 FAD600   0.0000
@<TRIPOS>BOND
     1    1    2      ar
     2    1    3      ar
     3    1    4       1
     4    1   53       1
     5    4    5       1
     6    5    6       1
     7    6    7       1
     8    6    8       1
     9    7   12       1
    10    8    9       1
    11    8   10       1
    12   10   11       1
    13   10   12       1
    14   12   13       1
    15   13   14       1
    16   13   22       1
    17   14   15       2
    18   15   16       1
    19   16   17      ar
    20   16   22      ar
    21   17   18       1
    22   17   19      ar
    23   19   20      ar
    24   20   21      ar
    25   21   22      ar
    26   23   24       1
    27   23   40       2
    28   24   25       2
    29   24   26       1
    30   26   27       1
    31   27   28       2
    32   27   29       1
    33   29   30       2
    34   29   40       1
    35   30   31       1
    36   31   32      ar
    37   31   38      ar
    38   32   33      ar
    39   33   34       1
    40   33   35      ar
    41   35   36       1
    42   35   37      ar
    43   37   38      ar
    44   38   39       1
    45   39   40       1
    46   39   41       1
    47   41   42       1
    48   42   43       1
    49   42   44       1
    50   44   45       1
    51   44   46       1
    52   46   47       1
    53   46   48       1
    54   48   49       1
    55   49   50       1
    56   50   51      ar
    57   50   52      ar
    58   50   53       1
    59   48   84       1
    60    5   54       1
    61    5   55       1
    62    6   56       1
    63    8   57       1
    64    9   58       1
    65   10   59       1
    66   11   60       1
    67   12   61       1
    68   14   62       1
    69   18   63       1
    70   18   64       1
    71   20   65       1
    72   26   66       1
    73   32   67       1
    74   34   68       1
    75   34   69       1
    76   34   70       1
    77   36   71       1
    78   36   72       1
    79   36   73       1
    80   37   74       1
    81   41   75       1
    82   41   76       1
    83   42   77       1
    84   43   78       1
    85   44   79       1
    86   45   80       1
    87   46   81       1
    88   47   82       1
    89   48   83       1
@<TRIPOS>SUBSTRUCTURE
     1 FAD600      1 GROUP             4 A     FAD     0 **** FAD A 600
