@<TRIPOS>MOLECULE
2mse_GNP_1_ligand
   45    47     1     0     0
SMALL
NO_CHARGES


@<TRIPOS>ATOM
     1 PG          11.1550   -11.4390   -46.0260 P.3          1 GNP201   0.0000
     2 O1G         11.9350   -10.5200   -46.9050 O.co2        1 GNP201   0.0000
     3 O2G         11.5270   -11.2840   -44.5530 O.co2        1 GNP201  -1.0000
     4 O3G          9.7370   -11.1870   -46.3440 O.co2        1 GNP201  -1.0000
     5 N3B         11.4120   -12.9890   -46.4610 N.3          1 GNP201   0.0000
     6 PB          12.8250   -13.7590   -46.5590 P.3          1 GNP201   0.0000
     7 O1B         13.3500   -14.1670   -45.2370 O.co2        1 GNP201   0.0000
     8 O2B         13.7360   -12.8730   -47.2780 O.co2        1 GNP201  -1.0000
     9 O3A         12.6090   -15.0190   -47.4440 O.3          1 GNP201   0.0000
    10 PA          11.9920   -16.4470   -47.1790 P.3          1 GNP201   0.0000
    11 O1A         12.8320   -17.2040   -46.2280 O.co2        1 GNP201   0.0000
    12 O2A         10.5470   -16.4010   -46.9460 O.co2        1 GNP201  -1.0000
    13 O5'         12.1090   -17.2170   -48.5340 O.3          1 GNP201   0.0000
    14 C5'         11.3930   -16.7240   -49.6920 C.3          1 GNP201   0.0000
    15 C4'         11.6100   -17.6510   -50.8580 C.3          1 GNP201   0.0000
    16 O4'         13.0450   -17.8650   -51.0570 O.3          1 GNP201   0.0000
    17 C3'         10.9990   -19.0450   -50.6930 C.3          1 GNP201   0.0000
    18 O3'         10.3180   -19.4220   -51.8800 O.3          1 GNP201   0.0000
    19 C2'         12.1910   -19.9300   -50.3410 C.3          1 GNP201   0.0000
    20 O2'         12.0810   -21.2890   -50.6930 O.3          1 GNP201   0.0000
    21 C1'         13.3590   -19.2630   -51.0460 C.3          1 GNP201   0.0000
    22 N9          14.6640   -19.4460   -50.3690 N.pl3        1 GNP201   0.0000
    23 C8          14.9650   -19.0380   -49.1070 C.2          1 GNP201   0.0000
    24 N7          16.1780   -19.3230   -48.7420 N.2          1 GNP201   0.0000
    25 C5          16.7340   -19.9770   -49.8460 C.2          1 GNP201   0.0000
    26 C6          18.0440   -20.5320   -50.0510 C.2          1 GNP201   0.0000
    27 O6          19.0020   -20.5710   -49.3070 O.2          1 GNP201   0.0000
    28 N1          18.1930   -21.0990   -51.2940 N.2          1 GNP201   0.0000
    29 C2          17.2220   -21.1480   -52.2590 C.2          1 GNP201   0.0000
    30 N2          17.5890   -21.7510   -53.4020 N.pl3        1 GNP201   0.0000
    31 N3          16.0020   -20.6400   -52.0940 N.pl3        1 GNP201   0.0000
    32 C4          15.8220   -20.0710   -50.8590 C.2          1 GNP201   0.0000
    33 H3B         10.8713   -13.5285   -45.8155 H            1 GNP201   0.0000
    34 H5'1        11.7286   -15.8116   -49.9263 H            1 GNP201   0.0000
    35 H5'2        10.4162   -16.6764   -49.4830 H            1 GNP201   0.0000
    36 H4'         11.2302   -17.2281   -51.6808 H            1 GNP201   0.0000
    37 H3'         10.3543   -19.0367   -49.9286 H            1 GNP201   0.0000
    38 H6           9.9227   -20.3330   -51.7625 H            1 GNP201   0.0000
    39 H2'         12.3448   -19.8723   -49.3546 H            1 GNP201   0.0000
    40 H8          11.6687   -21.7969   -49.9367 H            1 GNP201   0.0000
    41 H1'         13.4193   -19.5998   -51.9856 H            1 GNP201   0.0000
    42 H10         14.3132   -18.5631   -48.5157 H            1 GNP201   0.0000
    43 H11         16.9385   -21.8288   -54.1575 H            1 GNP201   0.0000
    44 H12         18.5127   -22.1221   -53.4973 H            1 GNP201   0.0000
    45 H13         15.2915   -20.6702   -52.7970 H            1 GNP201   0.0000
@<TRIPOS>BOND
     1    1    2      ar
     2    1    3      ar
     3    1    4      ar
     4    1    5       1
     5    5    6       1
     6    6    7      ar
     7    6    8      ar
     8    6    9       1
     9    9   10       1
    10   10   11      ar
    11   10   12      ar
    12   10   13       1
    13   13   14       1
    14   14   15       1
    15   15   16       1
    16   15   17       1
    17   16   21       1
    18   17   18       1
    19   17   19       1
    20   19   20       1
    21   19   21       1
    22   21   22       1
    23   22   23       1
    24   22   32       1
    25   23   24       2
    26   24   25       1
    27   25   26       1
    28   25   32       2
    29   26   27       2
    30   26   28       1
    31   28   29       2
    32   29   30       1
    33   29   31       1
    34   31   32       1
    35   30   44       1
    36   30   43       1
    37    5   33       1
    38   21   41       1
    39   23   42       1
    40   14   34       1
    41   14   35       1
    42   15   36       1
    43   17   37       1
    44   18   38       1
    45   19   39       1
    46   20   40       1
    47   31   45       1
@<TRIPOS>SUBSTRUCTURE
     1 GNP201      1 GROUP             4 B     GNP     0 **** GNP B 201
