@<TRIPOS>MOLECULE
1aj8_COA_1_ligand
   78    80     1     0     0
SMALL
NO_CHARGES


@<TRIPOS>ATOM
     1 N1A         36.5510    47.8600    63.7050 N.ar         1 COA3000   0.0000
     2 C2A         37.2860    48.9140    64.1750 C.ar         1 COA3000   0.0000
     3 N3A         38.0850    48.8890    65.2800 N.ar         1 COA3000   0.0000
     4 C4A         38.1230    47.7510    66.0000 C.ar         1 COA3000   0.0000
     5 C5A         37.3610    46.6660    65.5910 C.ar         1 COA3000   0.0000
     6 C6A         36.5290    46.7110    64.4080 C.ar         1 COA3000   0.0000
     7 N6A         35.7940    45.6410    64.0830 N.pl3        1 COA3000   0.0000
     8 N7A         37.4600    45.6520    66.3470 N.pl3        1 COA3000   0.0000
     9 C8A         38.4880    45.9750    67.2620 C.3          1 COA3000   0.0000
    10 N9A         38.7300    47.3540    67.0770 N.pl3        1 COA3000   0.0000
    11 C1B         39.5980    48.2950    67.8060 C.3          1 COA3000   0.0000
    12 C2B         38.9190    48.7790    69.1030 C.3          1 COA3000   0.0000
    13 O2B         38.0200    49.8900    68.9620 O.3          1 COA3000   0.0000
    14 C3B         40.1110    49.0190    70.0380 C.3          1 COA3000   0.0000
    15 O3B         40.6580    50.2680    69.6090 O.3          1 COA3000   0.0000
    16 P3B         41.5590    51.2300    70.6880 P.3          1 COA3000   0.0000
    17 O7A         41.6210    52.7220    70.0720 O.co2        1 COA3000   0.0000
    18 O8A         40.7940    51.2160    72.0970 O.co2        1 COA3000  -1.0000
    19 O9A         43.0090    50.5640    70.8010 O.co2        1 COA3000  -1.0000
    20 C4B         41.1510    47.9740    69.5920 C.3          1 COA3000   0.0000
    21 O4B         40.8110    47.6540    68.2330 O.3          1 COA3000   0.0000
    22 C5B         41.1050    46.7040    70.4350 C.3          1 COA3000   0.0000
    23 O5B         39.8980    45.9630    70.1860 O.3          1 COA3000   0.0000
    24 P1A         38.8870    45.4470    71.4090 P.3          1 COA3000   0.0000
    25 O1A         39.5790    45.4870    72.8030 O.co2        1 COA3000   0.0000
    26 O2A         37.5180    46.1920    71.4130 O.co2        1 COA3000  -1.0000
    27 O3A         38.7170    43.9170    70.8790 O.3          1 COA3000   0.0000
    28 P2A         38.0100    42.7220    71.6780 P.3          1 COA3000   0.0000
    29 O4A         38.9340    41.4900    71.6760 O.co2        1 COA3000   0.0000
    30 O5A         37.5980    43.1600    73.1100 O.co2        1 COA3000  -1.0000
    31 O6A         36.6740    42.5000    70.7420 O.3          1 COA3000   0.0000
    32 CBP         35.3900    41.7410    68.7770 C.3          1 COA3000   0.0000
    33 CCP         36.6230    41.4980    69.7060 C.3          1 COA3000   0.0000
    34 CDP         35.3330    40.5810    67.7620 C.3          1 COA3000   0.0000
    35 CEP         34.1120    41.7250    69.6670 C.3          1 COA3000   0.0000
    36 CAP         35.5770    43.1440    68.0540 C.3          1 COA3000   0.0000
    37 OAP         36.7570    43.1680    67.2460 O.3          1 COA3000   0.0000
    38 C9P         34.3270    43.6970    67.2730 C.2          1 COA3000   0.0000
    39 O9P         33.4500    44.3650    67.9010 O.2          1 COA3000   0.0000
    40 N8P         34.2350    43.4350    65.9600 N.am         1 COA3000   0.0000
    41 C7P         33.1100    43.9510    65.1570 C.3          1 COA3000   0.0000
    42 C6P         31.9540    42.9410    65.1520 C.3          1 COA3000   0.0000
    43 C5P         32.4490    41.6050    64.6550 C.2          1 COA3000   0.0000
    44 O5P         32.5730    41.3410    63.4360 O.2          1 COA3000   0.0000
    45 N4P         32.4730    40.6710    65.5400 N.am         1 COA3000   0.0000
    46 C3P         31.4930    39.5390    65.5500 C.3          1 COA3000   0.0000
    47 H2A         37.2330    49.7734    63.6664 H            1 COA3000   0.0000
    48 H6A1        35.8273    44.8198    64.6526 H            1 COA3000   0.0000
    49 H6A2        35.2115    45.6626    63.2705 H            1 COA3000   0.0000
    50 H7A         36.9264    44.8073    66.3048 H            1 COA3000   0.0000
    51 H8A1        39.3125    45.4448    67.0643 H            1 COA3000   0.0000
    52 H8A2        38.1921    45.7938    68.1999 H            1 COA3000   0.0000
    53 H1B         39.8147    49.0783    67.2233 H            1 COA3000   0.0000
    54 H2B         38.3949    48.0121    69.4733 H            1 COA3000   0.0000
    55 H9          38.3203    50.4675    68.2028 H            1 COA3000   0.0000
    56 H3B         39.8835    48.9828    71.0111 H            1 COA3000   0.0000
    57 H4B         42.0679    48.3715    69.6275 H            1 COA3000   0.0000
    58 H5B1        41.1422    46.9526    71.4029 H            1 COA3000   0.0000
    59 H5B2        41.8928    46.1317    70.2073 H            1 COA3000   0.0000
    60 HCP1        36.5469    40.5934    70.1254 H            1 COA3000   0.0000
    61 HCP2        37.4605    41.5436    69.1614 H            1 COA3000   0.0000
    62 HDP1        34.5511    40.7099    67.1520 H            1 COA3000   0.0000
    63 HDP2        36.1762    40.5666    67.2246 H            1 COA3000   0.0000
    64 HDP3        35.2347    39.7145    68.2513 H            1 COA3000   0.0000
    65 HEP1        33.3059    41.8787    69.0955 H            1 COA3000   0.0000
    66 HEP2        34.0338    40.8380    70.1221 H            1 COA3000   0.0000
    67 HEP3        34.1757    42.4481    70.3548 H            1 COA3000   0.0000
    68 HAP         35.7441    43.8017    68.7885 H            1 COA3000   0.0000
    69 H23         37.5580    43.0003    67.8207 H            1 COA3000   0.0000
    70 H8P         34.9407    42.8808    65.5186 H            1 COA3000   0.0000
    71 H7P1        33.4178    44.1051    64.2181 H            1 COA3000   0.0000
    72 H7P2        32.7926    44.8142    65.5497 H            1 COA3000   0.0000
    73 H6P1        31.2267    43.2710    64.5502 H            1 COA3000   0.0000
    74 H6P2        31.5975    42.8390    66.0807 H            1 COA3000   0.0000
    75 H4P         33.1756    40.7026    66.2508 H            1 COA3000   0.0000
    76 H3P1        31.6928    38.9319    66.3191 H            1 COA3000   0.0000
    77 H3P2        30.5658    39.9016    65.6437 H            1 COA3000   0.0000
    78 H3P3        31.5659    39.0274    64.6939 H            1 COA3000   0.0000
@<TRIPOS>BOND
     1    1    2      ar
     2    1    6      ar
     3    2    3      ar
     4    3    4      ar
     5    4    5      ar
     6    4   10       1
     7    5    6      ar
     8    5    8       1
     9    6    7       1
    10    8    9       1
    11    9   10       1
    12   10   11       1
    13   11   12       1
    14   11   21       1
    15   12   13       1
    16   12   14       1
    17   14   15       1
    18   14   20       1
    19   15   16       1
    20   16   17      ar
    21   16   18      ar
    22   16   19      ar
    23   20   21       1
    24   20   22       1
    25   22   23       1
    26   23   24       1
    27   24   25      ar
    28   24   26      ar
    29   24   27       1
    30   27   28       1
    31   28   29      ar
    32   28   30      ar
    33   28   31       1
    34   31   33       1
    35   32   33       1
    36   32   34       1
    37   32   35       1
    38   32   36       1
    39   36   37       1
    40   36   38       1
    41   38   39       2
    42   38   40      am
    43   40   41       1
    44   41   42       1
    45   42   43       1
    46   43   44       2
    47   43   45      am
    48   45   46       1
    49    2   47       1
    50    7   48       1
    51    7   49       1
    52    8   50       1
    53    9   51       1
    54    9   52       1
    55   11   53       1
    56   12   54       1
    57   13   55       1
    58   14   56       1
    59   46   78       1
    60   46   77       1
    61   20   57       1
    62   22   58       1
    63   22   59       1
    64   46   76       1
    65   45   75       1
    66   33   60       1
    67   33   61       1
    68   34   62       1
    69   34   63       1
    70   34   64       1
    71   35   65       1
    72   35   66       1
    73   35   67       1
    74   36   68       1
    75   37   69       1
    76   40   70       1
    77   41   71       1
    78   41   72       1
    79   42   73       1
    80   42   74       1
@<TRIPOS>SUBSTRUCTURE
     1 COA3000     1 GROUP             4 A     COA     0 **** COA A3000
