@<TRIPOS>MOLECULE
4nak_PBQ_1_ligand
   21    22     1     0     0
SMALL
NO_CHARGES


@<TRIPOS>ATOM
     1 CH           4.1540    24.8440   -22.7010 C.ar         1 PBQ401   0.0000
     2 CG           4.6760    23.8350   -20.5670 C.ar         1 PBQ401   0.0000
     3 CD1          5.0560    22.7150   -19.6720 C.2          1 PBQ401   0.0000
     4 CD2          4.5690    25.1040   -19.9820 C.ar         1 PBQ401   0.0000
     5 CE2          4.2360    26.2170   -20.7540 C.ar         1 PBQ401   0.0000
     6 CR           4.4840    23.7010   -21.9550 C.ar         1 PBQ401   0.0000
     7 O            4.6030    22.4720   -22.6150 O.3          1 PBQ401   0.0000
     8 C3           4.0310    26.0940   -22.1150 C.ar         1 PBQ401   0.0000
     9 C7           6.1550    20.9500   -18.9440 C.2          1 PBQ401   0.0000
    10 C8           5.2550    21.3000   -17.9350 C.2          1 PBQ401   0.0000
    11 C9           4.5660    22.4260   -18.3930 C.2          1 PBQ401   0.0000
    12 N11          6.0140    21.8170   -19.9600 N.pl3        1 PBQ401   0.0000
    13 BR13         4.0730    27.8870   -20.0050 Br           1 PBQ401   0.0000
    14 BR14         3.8530    24.7760   -24.5220 Br           1 PBQ401   0.0000
    15 BR17         3.2230    23.3480   -17.5010 Br           1 PBQ401   0.0000
    16 BR18         5.0490    20.4360   -16.3050 Br           1 PBQ401   0.0000
    17 BR19         7.3340    19.5270   -18.8990 Br           1 PBQ401   0.0000
    18 HD2          4.7330    25.2126   -19.0015 H            1 PBQ401   0.0000
    19 H2           4.4536    22.4181   -23.6023 H            1 PBQ401   0.0000
    20 H3           3.7977    26.8938   -22.6681 H            1 PBQ401   0.0000
    21 H4           6.5445    21.7974   -20.8075 H            1 PBQ401   0.0000
@<TRIPOS>BOND
     1    1    6      ar
     2    1    8      ar
     3    1   14       1
     4    2    3       1
     5    2    4      ar
     6    2    6      ar
     7    3   11       2
     8    3   12       1
     9    4    5      ar
    10    5    8      ar
    11    5   13       1
    12    6    7       1
    13    9   10       2
    14    9   12       1
    15    9   17       1
    16   10   11       1
    17   10   16       1
    18   11   15       1
    19    4   18       1
    20    7   19       1
    21    8   20       1
    22   12   21       1
@<TRIPOS>SUBSTRUCTURE
     1 PBQ401      1 GROUP             4 A     PBQ     0 **** PBQ A 401
