@<TRIPOS>MOLECULE
3f3s_NAD_2_ligand
   70    74     1     0     0
SMALL
NO_CHARGES


@<TRIPOS>ATOM
     1 PA         -70.6700    19.2610    -1.6470 P.3          1 NAD601   0.0000
     2 O1A        -70.7420    19.3850    -0.1860 O.co2        1 NAD601   0.0000
     3 O2A        -69.9220    20.2440    -2.4560 O.co2        1 NAD601  -1.0000
     4 O5B        -72.0900    19.1350    -2.2940 O.3          1 NAD601   0.0000
     5 C5B        -73.1780    18.4630    -1.6210 C.3          1 NAD601   0.0000
     6 C4B        -74.4880    19.0090    -2.1710 C.3          1 NAD601   0.0000
     7 O4B        -75.6020    18.1080    -1.9460 O.3          1 NAD601   0.0000
     8 C3B        -74.7970    20.3140    -1.3950 C.3          1 NAD601   0.0000
     9 O3B        -75.1860    21.3420    -2.3290 O.3          1 NAD601   0.0000
    10 C2B        -75.9440    19.9070    -0.4770 C.3          1 NAD601   0.0000
    11 O2B        -76.8610    20.9880    -0.2750 O.3          1 NAD601   0.0000
    12 C1B        -76.6480    18.8830    -1.3150 C.3          1 NAD601   0.0000
    13 N9A        -77.5160    18.0440    -0.4330 N.pl3        1 NAD601   0.0000
    14 C8A        -77.3650    17.7280     0.8610 C.2          1 NAD601   0.0000
    15 N7A        -78.3770    16.9400     1.2360 N.2          1 NAD601   0.0000
    16 C5A        -79.1440    16.7760     0.1660 C.ar         1 NAD601   0.0000
    17 C6A        -80.3220    16.0970    -0.0510 C.ar         1 NAD601   0.0000
    18 N6A        -80.8540    15.4220     0.9680 N.pl3        1 NAD601   0.0000
    19 N1A        -80.8800    16.1340    -1.2790 N.ar         1 NAD601   0.0000
    20 C2A        -80.3300    16.8200    -2.2850 C.ar         1 NAD601   0.0000
    21 N3A        -79.2000    17.4980    -2.0990 N.ar         1 NAD601   0.0000
    22 C4A        -78.6100    17.4870    -0.8880 C.ar         1 NAD601   0.0000
    23 O3         -70.0020    17.8030    -1.9330 O.3          1 NAD601   0.0000
    24 PN         -69.1780    17.3920    -3.2640 P.3          1 NAD601   0.0000
    25 O1N        -67.7390    17.6840    -3.0510 O.co2        1 NAD601   0.0000
    26 O2N        -69.8670    17.8710    -4.5070 O.co2        1 NAD601  -1.0000
    27 O5D        -69.3710    15.7810    -3.1830 O.3          1 NAD601   0.0000
    28 C5D        -70.5440    15.1960    -3.5890 C.3          1 NAD601   0.0000
    29 C4D        -70.4320    13.7250    -3.9830 C.3          1 NAD601   0.0000
    30 O4D        -69.4830    13.5950    -5.0460 O.3          1 NAD601   0.0000
    31 C3D        -69.9540    12.8160    -2.8360 C.3          1 NAD601   0.0000
    32 O3D        -70.5290    11.4840    -2.9800 O.3          1 NAD601   0.0000
    33 C2D        -68.4620    12.7530    -3.0940 C.3          1 NAD601   0.0000
    34 O2D        -67.9420    11.5600    -2.5070 O.3          1 NAD601   0.0000
    35 C1D        -68.4480    12.6530    -4.6120 C.3          1 NAD601   0.0000
    36 N1N        -67.1780    13.1080    -5.2180 N.ar         1 NAD601   1.0000
    37 C2N        -66.4110    14.1310    -4.5890 C.ar         1 NAD601   0.0000
    38 C3N        -65.2210    14.5370    -5.1690 C.ar         1 NAD601   0.0000
    39 C7N        -64.4990    15.7080    -4.5030 C.2          1 NAD601   0.0000
    40 O7N        -63.3478    15.9697    -4.8317 O.2          1 NAD601   0.0000
    41 N7N        -65.1936    16.5543    -3.8062 N.am         1 NAD601   0.0000
    42 C4N        -64.7800    13.9230    -6.3470 C.ar         1 NAD601   0.0000
    43 C5N        -65.5230    12.9180    -6.9790 C.ar         1 NAD601   0.0000
    44 C6N        -66.7230    12.5190    -6.4140 C.ar         1 NAD601   0.0000
    45 H5B1       -73.1258    18.6358    -0.6374 H            1 NAD601   0.0000
    46 H5B2       -73.1241    17.4788    -1.7899 H            1 NAD601   0.0000
    47 H4B        -74.3958    19.2038    -3.1475 H            1 NAD601   0.0000
    48 H3B        -74.0028    20.6040    -0.8609 H            1 NAD601   0.0000
    49 H5         -76.1770    21.3157    -2.4599 H            1 NAD601   0.0000
    50 H2B        -75.6166    19.5251     0.3873 H            1 NAD601   0.0000
    51 H7         -77.5730    20.9566    -0.9764 H            1 NAD601   0.0000
    52 H1B        -77.2049    19.3358    -2.0113 H            1 NAD601   0.0000
    53 H8A        -76.6165    18.0325     1.4501 H            1 NAD601   0.0000
    54 H6A1       -81.7089    14.9187     0.8424 H            1 NAD601   0.0000
    55 H6A2       -80.3982    15.4189     1.8581 H            1 NAD601   0.0000
    56 H2A        -80.7700    16.8240    -3.1830 H            1 NAD601   0.0000
    57 H5D1       -70.8856    15.7034    -4.3801 H            1 NAD601   0.0000
    58 H5D2       -71.2012    15.2665    -2.8386 H            1 NAD601   0.0000
    59 H4D        -71.3240    13.4047    -4.3020 H            1 NAD601   0.0000
    60 H3D        -70.1581    13.2121    -1.9407 H            1 NAD601   0.0000
    61 H17        -69.9019    10.8068    -2.5950 H            1 NAD601   0.0000
    62 H2D        -67.9887    13.5707    -2.7664 H            1 NAD601   0.0000
    63 H19        -66.9933    11.7113    -2.2293 H            1 NAD601   0.0000
    64 H1D        -68.6685    11.7235    -4.9077 H            1 NAD601   0.0000
    65 H2N        -66.7284    14.5508    -3.7387 H            1 NAD601   0.0000
    66 H7N1       -64.8770    17.4974    -3.7049 H            1 NAD601   0.0000
    67 H7N2       -66.0454    16.2633    -3.3707 H            1 NAD601   0.0000
    68 H4N        -63.9102    14.2099    -6.7485 H            1 NAD601   0.0000
    69 H5N        -65.1929    12.4959    -7.8233 H            1 NAD601   0.0000
    70 H6N        -67.2695    11.8087    -6.8577 H            1 NAD601   0.0000
@<TRIPOS>BOND
     1    1    2      ar
     2    1    3      ar
     3    1    4       1
     4    1   23       1
     5    4    5       1
     6    5    6       1
     7    6    7       1
     8    6    8       1
     9    7   12       1
    10    8    9       1
    11    8   10       1
    12   10   11       1
    13   10   12       1
    14   12   13       1
    15   13   14       1
    16   13   22       1
    17   14   15       2
    18   15   16       1
    19   16   17      ar
    20   16   22      ar
    21   17   18       1
    22   17   19      ar
    23   19   20      ar
    24   20   21      ar
    25   21   22      ar
    26   23   24       1
    27   24   25      ar
    28   24   26      ar
    29   24   27       1
    30   27   28       1
    31   28   29       1
    32   29   30       1
    33   29   31       1
    34   30   35       1
    35   31   32       1
    36   31   33       1
    37   33   34       1
    38   33   35       1
    39   35   36       1
    40   36   37      ar
    41   36   44      ar
    42   37   38      ar
    43   38   39       1
    44   38   42      ar
    45   39   40       2
    46   39   41      am
    47   42   43      ar
    48   43   44      ar
    49   44   70       1
    50    5   45       1
    51    5   46       1
    52    6   47       1
    53    8   48       1
    54    9   49       1
    55   10   50       1
    56   11   51       1
    57   12   52       1
    58   14   53       1
    59   18   54       1
    60   18   55       1
    61   20   56       1
    62   43   69       1
    63   28   57       1
    64   28   58       1
    65   29   59       1
    66   31   60       1
    67   32   61       1
    68   33   62       1
    69   34   63       1
    70   35   64       1
    71   37   65       1
    72   41   66       1
    73   41   67       1
    74   42   68       1
@<TRIPOS>SUBSTRUCTURE
     1 NAD601      1 GROUP             4 B     NAD     0 **** NAD B 601
