@<TRIPOS>MOLECULE
2y6p_CTP_1_ligand
   41    42     1     0     0
SMALL
NO_CHARGES


@<TRIPOS>ATOM
     1 N1          65.5340    61.5110     5.9510 N.pl3        1 CTP1233   0.0000
     2 C2          66.5930    61.1470     5.1150 C.2          1 CTP1233   0.0000
     3 N3          66.3470    60.8850     3.7850 N.2          1 CTP1233   0.0000
     4 C4          65.0760    61.0110     3.2620 C.2          1 CTP1233   0.0000
     5 C5          64.0220    61.3960     4.0860 C.2          1 CTP1233   0.0000
     6 C6          64.2640    61.6260     5.4300 C.2          1 CTP1233   0.0000
     7 O2          67.7480    61.0300     5.5280 O.2          1 CTP1233   0.0000
     8 N4          64.8660    60.7580     1.9720 N.pl3        1 CTP1233   0.0000
     9 C1'         65.7790    61.8540     7.3670 C.3          1 CTP1233   0.0000
    10 C2'         65.4950    63.3260     7.6600 C.3          1 CTP1233   0.0000
    11 O2'         66.6030    64.1920     7.4570 O.3          1 CTP1233   0.0000
    12 C3'         65.0120    63.3040     9.1010 C.3          1 CTP1233   0.0000
    13 C4'         64.5050    61.8730     9.3230 C.3          1 CTP1233   0.0000
    14 O4'         64.9080    61.1060     8.2020 O.3          1 CTP1233   0.0000
    15 O3'         66.0640    63.6130     9.9950 O.3          1 CTP1233   0.0000
    16 C5'         62.9720    61.8010     9.4520 C.3          1 CTP1233   0.0000
    17 O5'         62.3250    62.3100     8.3050 O.3          1 CTP1233   0.0000
    18 PA          61.4600    63.6690     8.2300 P.3          1 CTP1233   0.0000
    19 O1A         61.2030    64.2040     9.6170 O.co2        1 CTP1233   0.0000
    20 O2A         60.1650    63.5150     7.4580 O.co2        1 CTP1233  -1.0000
    21 O3A         62.3830    64.7780     7.4900 O.3          1 CTP1233   0.0000
    22 PB          62.3290    65.2890     5.9660 P.3          1 CTP1233   0.0000
    23 O1B         61.9080    64.1880     5.0110 O.co2        1 CTP1233   0.0000
    24 O2B         63.6930    65.8370     5.5720 O.co2        1 CTP1233  -1.0000
    25 O3B         61.2960    66.4930     5.9950 O.3          1 CTP1233   0.0000
    26 PG          60.0240    66.5560     5.0600 P.3          1 CTP1233   0.0000
    27 O1G         59.2300    65.2920     5.3240 O.co2        1 CTP1233   0.0000
    28 O2G         60.3500    66.6180     3.5850 O.co2        1 CTP1233  -1.0000
    29 O3G         59.2980    67.8300     5.4270 O.co2        1 CTP1233  -1.0000
    30 H1          63.1011    61.5052     3.7118 H            1 CTP1233   0.0000
    31 H2          63.5059    61.8792     6.0309 H            1 CTP1233   0.0000
    32 H3          63.9470    60.8478     1.5880 H            1 CTP1233   0.0000
    33 H4          65.6272    60.4782     1.3870 H            1 CTP1233   0.0000
    34 H1'         66.7281    61.6441     7.6018 H            1 CTP1233   0.0000
    35 H2'         64.7421    63.6284     7.0755 H            1 CTP1233   0.0000
    36 H7          66.2738    65.0967     7.1867 H            1 CTP1233   0.0000
    37 H3'         64.2615    63.9542     9.2194 H            1 CTP1233   0.0000
    38 H4'         64.9248    61.4975    10.1493 H            1 CTP1233   0.0000
    39 H10         66.7967    62.9402     9.8928 H            1 CTP1233   0.0000
    40 H5'1        62.6886    62.3362    10.2478 H            1 CTP1233   0.0000
    41 H5'2        62.7023    60.8465     9.5790 H            1 CTP1233   0.0000
@<TRIPOS>BOND
     1    1    2       1
     2    1    6       1
     3    1    9       1
     4    2    3       1
     5    2    7       2
     6    3    4       2
     7    4    5       1
     8    4    8       1
     9    5    6       2
    10    9   10       1
    11    9   14       1
    12   10   11       1
    13   10   12       1
    14   12   13       1
    15   12   15       1
    16   13   14       1
    17   13   16       1
    18   16   17       1
    19   17   18       1
    20   18   19      ar
    21   18   20      ar
    22   18   21       1
    23   21   22       1
    24   22   23      ar
    25   22   24      ar
    26   22   25       1
    27   25   26       1
    28   26   27      ar
    29   26   28      ar
    30   26   29      ar
    31    5   30       1
    32    6   31       1
    33    8   32       1
    34    8   33       1
    35    9   34       1
    36   10   35       1
    37   11   36       1
    38   12   37       1
    39   13   38       1
    40   15   39       1
    41   16   40       1
    42   16   41       1
@<TRIPOS>SUBSTRUCTURE
     1 CTP1233     1 GROUP             4 A     CTP     0 **** CTP A1233
