@<TRIPOS>MOLECULE
2j0j_4ST_1_ligand
   66    73     1     0     0
SMALL
NO_CHARGES


@<TRIPOS>ATOM
     1 CAB        -20.1890   -39.4370    10.1010 C.3          1 4ST1687   0.0000
     2 OAQ        -20.1050   -40.2240     8.8690 O.3          1 4ST1687   0.0000
     3 CBF        -19.0220   -41.2220     8.8720 C.3          1 4ST1687   0.0000
     4 CBD        -18.3800   -41.1410     7.4870 C.3          1 4ST1687   0.0000
     5 NAO        -17.7190   -39.8450     7.2800 N.4          1 4ST1687   1.0000
     6 CAA        -16.3700   -39.8650     7.8780 C.3          1 4ST1687   0.0000
     7 CAN        -19.4900   -41.2620     6.4700 C.3          1 4ST1687   0.0000
     8 CBE        -20.3380   -42.5020     6.8090 C.3          1 4ST1687   0.0000
     9 OAR        -19.8610   -43.3070     7.9020 O.3          1 4ST1687   0.0000
    10 CBI        -19.5510   -42.6780     9.1280 C.3          1 4ST1687   0.0000
    11 CAC        -18.4770   -43.5430     9.7930 C.3          1 4ST1687   0.0000
    12 NBH        -20.7880   -42.5530     9.9470 N.pl3        1 4ST1687   0.0000
    13 CAY        -20.8300   -42.5740    11.2870 C.ar         1 4ST1687   0.0000
    14 CAH        -19.8560   -42.7650    12.2650 C.ar         1 4ST1687   0.0000
    15 CAF        -20.2200   -42.7610    13.6110 C.ar         1 4ST1687   0.0000
    16 CAE        -21.5420   -42.5610    13.9910 C.ar         1 4ST1687   0.0000
    17 CAG        -22.5190   -42.3620    13.0270 C.ar         1 4ST1687   0.0000
    18 CAX        -22.1580   -42.3680    11.6860 C.ar         1 4ST1687   0.0000
    19 CBA        -22.8970   -42.2070    10.5370 C.ar         1 4ST1687   0.0000
    20 CBC        -22.0110   -42.3290     9.4800 C.ar         1 4ST1687   0.0000
    21 CBB        -22.4550   -42.2020     8.1730 C.ar         1 4ST1687   0.0000
    22 NBG        -21.7770   -42.2540     7.0270 N.pl3        1 4ST1687   0.0000
    23 CAV        -22.6290   -42.0840     6.0200 C.2          1 4ST1687   0.0000
    24 CAL        -22.2730   -42.0790     4.5250 C.3          1 4ST1687   0.0000
    25 CAJ        -23.5110   -42.0400     3.6320 C.3          1 4ST1687   0.0000
    26 CAI        -24.6470   -41.2060     4.2490 C.3          1 4ST1687   0.0000
    27 CAK        -25.1080   -41.6610     5.6490 C.3          1 4ST1687   0.0000
    28 CAT        -23.9000   -41.8910     6.5320 C.2          1 4ST1687   0.0000
    29 CAZ        -23.8120   -41.9680     7.9190 C.ar         1 4ST1687   0.0000
    30 CAW        -24.7170   -41.8680     8.9910 C.ar         1 4ST1687   0.0000
    31 CAU        -24.2340   -41.9820    10.2840 C.ar         1 4ST1687   0.0000
    32 CAM        -25.3800   -41.8330    11.2650 C.3          1 4ST1687   0.0000
    33 NAP        -26.5150   -41.5640    10.3790 N.am         1 4ST1687   0.0000
    34 CAS        -26.0850   -41.6170     9.1090 C.2          1 4ST1687   0.0000
    35 OAD        -26.8380   -41.3920     8.1620 O.2          1 4ST1687   0.0000
    36 HAB1       -20.9424   -38.7834    10.0283 H            1 4ST1687   0.0000
    37 HAB2       -20.3510   -40.0476    10.8762 H            1 4ST1687   0.0000
    38 HAB3       -19.3310   -38.9425    10.2398 H            1 4ST1687   0.0000
    39 HBF        -18.3467   -40.9826     9.5696 H            1 4ST1687   0.0000
    40 HBD        -17.7225   -41.8851     7.3687 H            1 4ST1687   0.0000
    41 HAO1       -18.2616   -39.1240     7.7110 H            1 4ST1687   0.0000
    42 HAA1       -15.9278   -38.9800     7.7326 H            1 4ST1687   0.0000
    43 HAA2       -16.4429   -40.0440     8.8591 H            1 4ST1687   0.0000
    44 HAA3       -15.8252   -40.5846     7.4475 H            1 4ST1687   0.0000
    45 HAN1       -19.0987   -41.3619     5.5552 H            1 4ST1687   0.0000
    46 HAN2       -20.0639   -40.4436     6.4995 H            1 4ST1687   0.0000
    47 HBE        -20.2871   -43.0898     6.0016 H            1 4ST1687   0.0000
    48 HAC1       -18.8373   -44.4633     9.9452 H            1 4ST1687   0.0000
    49 HAC2       -17.6744   -43.5934     9.1986 H            1 4ST1687   0.0000
    50 HAC3       -18.2178   -43.1373    10.6695 H            1 4ST1687   0.0000
    51 HAH        -18.9010   -42.9042    12.0029 H            1 4ST1687   0.0000
    52 HAF        -19.5211   -42.9038    14.3118 H            1 4ST1687   0.0000
    53 HAE        -21.7888   -42.5606    14.9601 H            1 4ST1687   0.0000
    54 HAG        -23.4715   -42.2160    13.2942 H            1 4ST1687   0.0000
    55 HAL1       -21.7523   -42.9068     4.3161 H            1 4ST1687   0.0000
    56 HAL2       -21.7118   -41.2744     4.3312 H            1 4ST1687   0.0000
    57 HAJ1       -23.8371   -42.9750     3.4927 H            1 4ST1687   0.0000
    58 HAJ2       -23.2598   -41.6398     2.7507 H            1 4ST1687   0.0000
    59 HAI1       -25.4340   -41.2518     3.6338 H            1 4ST1687   0.0000
    60 HAI2       -24.3332   -40.2591     4.3189 H            1 4ST1687   0.0000
    61 HAK1       -25.6278   -42.5115     5.5681 H            1 4ST1687   0.0000
    62 HAK2       -25.6870   -40.9538     6.0548 H            1 4ST1687   0.0000
    63 HAM1       -25.2223   -41.0712    11.8933 H            1 4ST1687   0.0000
    64 HAM2       -25.5203   -42.6733    11.7886 H            1 4ST1687   0.0000
    65 HAP        -27.4521   -41.3731    10.6712 H            1 4ST1687   0.0000
    66 HAO2       -17.6438   -39.6645     6.2993 H            1 4ST1687   0.0000
@<TRIPOS>BOND
     1    1    2       1
     2    2    3       1
     3    3    4       1
     4    3   10       1
     5    4    5       1
     6    4    7       1
     7    5    6       1
     8    7    8       1
     9    8    9       1
    10    8   22       1
    11    9   10       1
    12   10   11       1
    13   10   12       1
    14   12   13       1
    15   12   20       1
    16   13   14      ar
    17   13   18      ar
    18   14   15      ar
    19   15   16      ar
    20   16   17      ar
    21   17   18      ar
    22   18   19       1
    23   19   20      ar
    24   19   31      ar
    25   20   21      ar
    26   21   22       1
    27   21   29      ar
    28   22   23       1
    29   23   24       1
    30   23   28       2
    31   24   25       1
    32   25   26       1
    33   26   27       1
    34   27   28       1
    35   28   29       1
    36   29   30      ar
    37   30   31      ar
    38   30   34       1
    39   31   32       1
    40   32   33       1
    41   33   34      am
    42   34   35       2
    43    1   36       1
    44    1   37       1
    45    1   38       1
    46    3   39       1
    47    4   40       1
    48    5   41       1
    49    6   42       1
    50    6   43       1
    51    6   44       1
    52    7   45       1
    53    7   46       1
    54    8   47       1
    55   11   48       1
    56   11   49       1
    57   11   50       1
    58   14   51       1
    59   15   52       1
    60   16   53       1
    61   17   54       1
    62   24   55       1
    63   24   56       1
    64   25   57       1
    65   25   58       1
    66   26   59       1
    67   26   60       1
    68   27   61       1
    69   27   62       1
    70   32   63       1
    71   32   64       1
    72   33   65       1
    73    5   66       1
@<TRIPOS>SUBSTRUCTURE
     1 4ST1687     1 GROUP             4 A     4ST     0 **** 4ST A1687
