@<TRIPOS>MOLECULE
2q0k_NAP_2_ligand
   73    77     1     0     0
SMALL
NO_CHARGES


@<TRIPOS>ATOM
     1 PA           8.2580   -23.8150    36.8420 P.3          1 NAP401   0.0000
     2 O1A          9.5020   -24.1900    37.5650 O.co2        1 NAP401   0.0000
     3 O2A          7.3240   -24.7940    36.2210 O.co2        1 NAP401  -1.0000
     4 O5B          7.5310   -23.9150    38.3150 O.3          1 NAP401   0.0000
     5 C5B          6.1040   -24.0240    38.5060 C.3          1 NAP401   0.0000
     6 C4B          5.6770   -24.1760    39.9700 C.3          1 NAP401   0.0000
     7 O4B          4.2170   -24.1670    39.8800 O.3          1 NAP401   0.0000
     8 C3B          6.0590   -25.5220    40.5810 C.3          1 NAP401   0.0000
     9 O3B          6.4450   -25.2880    41.9420 O.3          1 NAP401   0.0000
    10 C2B          4.7670   -26.3710    40.4600 C.3          1 NAP401   0.0000
    11 O2B          4.5960   -27.2680    41.5460 O.3          1 NAP401   0.0000
    12 C1B          3.6850   -25.3260    40.6050 C.3          1 NAP401   0.0000
    13 N9A          2.3960   -25.6280    39.9310 N.pl3        1 NAP401   0.0000
    14 C8A          2.2000   -25.9730    38.6560 C.2          1 NAP401   0.0000
    15 N7A          0.8940   -26.1160    38.4430 N.2          1 NAP401   0.0000
    16 C5A          0.2620   -25.8750    39.5920 C.ar         1 NAP401   0.0000
    17 C6A         -1.0770   -25.8650    39.9680 C.ar         1 NAP401   0.0000
    18 N6A         -2.0320   -26.1700    39.0770 N.pl3        1 NAP401   0.0000
    19 N1A         -1.3750   -25.5520    41.2500 N.ar         1 NAP401   0.0000
    20 C2A         -0.4250   -25.2430    42.1410 C.ar         1 NAP401   0.0000
    21 N3A          0.8630   -25.2380    41.8070 N.ar         1 NAP401   0.0000
    22 C4A          1.2140   -25.5460    40.5340 C.ar         1 NAP401   0.0000
    23 O3           7.7820   -22.2410    36.7830 O.3          1 NAP401   0.0000
    24 PN           8.7660   -20.9170    36.8880 P.3          1 NAP401   0.0000
    25 O1N          7.7050   -20.1790    36.1440 O.co2        1 NAP401   0.0000
    26 O2N          8.8070   -21.0900    38.3640 O.co2        1 NAP401  -1.0000
    27 O5D          9.9450   -21.6780    36.1060 O.3          1 NAP401   0.0000
    28 C5D         10.0640   -21.6760    34.6960 C.3          1 NAP401   0.0000
    29 C4D         11.5600   -21.8710    34.2750 C.3          1 NAP401   0.0000
    30 O4D         12.2300   -20.5580    34.2730 O.3          1 NAP401   0.0000
    31 C3D         12.3030   -22.7550    35.2860 C.3          1 NAP401   0.0000
    32 O3D         13.3170   -23.5270    34.6110 O.3          1 NAP401   0.0000
    33 C2D         12.9170   -21.7040    36.2190 C.3          1 NAP401   0.0000
    34 O2D         14.0710   -22.2090    36.8970 O.3          1 NAP401   0.0000
    35 C1D         13.3250   -20.6100    35.2310 C.3          1 NAP401   0.0000
    36 N1N         13.4830   -19.3210    35.9570 N.ar         1 NAP401   1.0000
    37 C2N         14.7640   -18.8700    36.3150 C.ar         1 NAP401   0.0000
    38 C3N         14.9270   -17.6630    36.9980 C.ar         1 NAP401   0.0000
    39 C7N         16.3470   -17.2050    37.3770 C.2          1 NAP401   0.0000
    40 O7N         17.3130   -17.9370    37.1640 O.2          1 NAP401   0.0000
    41 N7N         16.4680   -15.9990    37.9340 N.am         1 NAP401   0.0000
    42 C4N         13.7990   -16.9080    37.3260 C.ar         1 NAP401   0.0000
    43 C5N         12.5230   -17.3470    36.9820 C.ar         1 NAP401   0.0000
    44 C6N         12.3560   -18.5500    36.2900 C.ar         1 NAP401   0.0000
    45 P2B          5.5840   -28.4860    41.7650 P.3          1 NAP401   0.0000
    46 O1X          4.8100   -29.4300    42.8310 O.co2        1 NAP401   0.0000
    47 O2X          5.5740   -29.2270    40.3560 O.co2        1 NAP401  -1.0000
    48 O3X          6.9150   -28.0030    42.2210 O.co2        1 NAP401  -1.0000
    49 H5B1         5.7798   -24.8233    38.0000 H            1 NAP401   0.0000
    50 H5B2         5.6742   -23.1995    38.1378 H            1 NAP401   0.0000
    51 H4B          6.0116   -23.4159    40.5270 H            1 NAP401   0.0000
    52 H3B          6.8076   -25.9429    40.0688 H            1 NAP401   0.0000
    53 H5           6.7015   -26.1549    42.3695 H            1 NAP401   0.0000
    54 H2B          4.7131   -26.8408    39.5789 H            1 NAP401   0.0000
    55 H1B          3.5363   -25.1025    41.5683 H            1 NAP401   0.0000
    56 H8A          2.9180   -26.1029    37.9722 H            1 NAP401   0.0000
    57 H6A1        -2.9934   -26.1615    39.3519 H            1 NAP401   0.0000
    58 H6A2        -1.7826   -26.4059    38.1378 H            1 NAP401   0.0000
    59 H2A         -0.6888   -25.0111    43.0773 H            1 NAP401   0.0000
    60 H5D1         9.7320   -20.8031    34.3384 H            1 NAP401   0.0000
    61 H5D2         9.5152   -22.4215    34.3178 H            1 NAP401   0.0000
    62 H4D         11.6078   -22.2801    33.3638 H            1 NAP401   0.0000
    63 H3D         11.6680   -23.3485    35.7805 H            1 NAP401   0.0000
    64 H16         13.7968   -24.1002    35.2752 H            1 NAP401   0.0000
    65 H2D         12.2391   -21.3636    36.8706 H            1 NAP401   0.0000
    66 H18         14.1562   -21.7627    37.7878 H            1 NAP401   0.0000
    67 H1D         14.1780   -20.8571    34.7712 H            1 NAP401   0.0000
    68 H2N         15.5664   -19.4180    36.0787 H            1 NAP401   0.0000
    69 H7N1        17.3705   -15.6581    38.1973 H            1 NAP401   0.0000
    70 H7N2        15.6562   -15.4358    38.0883 H            1 NAP401   0.0000
    71 H4N         13.9088   -16.0419    37.8137 H            1 NAP401   0.0000
    72 H5N         11.7237   -16.8000    37.2308 H            1 NAP401   0.0000
    73 H6N         11.4405   -18.8601    36.0335 H            1 NAP401   0.0000
@<TRIPOS>BOND
     1    1    2      ar
     2    1    3      ar
     3    1    4       1
     4    1   23       1
     5    4    5       1
     6    5    6       1
     7    6    7       1
     8    6    8       1
     9    7   12       1
    10    8    9       1
    11    8   10       1
    12   10   11       1
    13   10   12       1
    14   11   45       1
    15   12   13       1
    16   13   14       1
    17   13   22       1
    18   14   15       2
    19   15   16       1
    20   16   17      ar
    21   16   22      ar
    22   17   18       1
    23   17   19      ar
    24   19   20      ar
    25   20   21      ar
    26   21   22      ar
    27   23   24       1
    28   24   25      ar
    29   24   26      ar
    30   24   27       1
    31   27   28       1
    32   28   29       1
    33   29   30       1
    34   29   31       1
    35   30   35       1
    36   31   32       1
    37   31   33       1
    38   33   34       1
    39   33   35       1
    40   35   36       1
    41   36   37      ar
    42   36   44      ar
    43   37   38      ar
    44   38   39       1
    45   38   42      ar
    46   39   40       2
    47   39   41      am
    48   42   43      ar
    49   43   44      ar
    50   45   46      ar
    51   45   47      ar
    52   45   48      ar
    53   43   72       1
    54    5   49       1
    55    5   50       1
    56    6   51       1
    57    8   52       1
    58    9   53       1
    59   10   54       1
    60   12   55       1
    61   14   56       1
    62   18   57       1
    63   18   58       1
    64   20   59       1
    65   44   73       1
    66   28   60       1
    67   28   61       1
    68   29   62       1
    69   31   63       1
    70   32   64       1
    71   33   65       1
    72   34   66       1
    73   35   67       1
    74   37   68       1
    75   41   69       1
    76   41   70       1
    77   42   71       1
@<TRIPOS>SUBSTRUCTURE
     1 NAP401      1 GROUP             4 A     NAP     0 **** NAP A 401
