@<TRIPOS>MOLECULE
2iml_FMN_1_ligand
   50    52     1     0     0
SMALL
NO_CHARGES


@<TRIPOS>ATOM
     1 N1           0.4660    34.0700    43.0230 N.2          1 FMN200   0.0000
     2 C2          -0.0470    34.7980    41.9630 C.2          1 FMN200   0.0000
     3 O2           0.5710    35.8000    41.5640 O.2          1 FMN200   0.0000
     4 N3          -1.2460    34.3950    41.3850 N.pl3        1 FMN200   0.0000
     5 C4          -1.9330    33.2740    41.8480 C.2          1 FMN200   0.0000
     6 O4          -2.9430    32.8610    41.2490 O.2          1 FMN200   0.0000
     7 C4A         -1.4120    32.5580    42.9300 C.2          1 FMN200   0.0000
     8 N5          -2.0630    31.4370    43.4070 N.2          1 FMN200   0.0000
     9 C5A         -1.5360    30.7210    44.4720 C.ar         1 FMN200   0.0000
    10 C6          -2.2120    29.5970    44.9490 C.ar         1 FMN200   0.0000
    11 C7          -1.7050    28.8520    46.0140 C.ar         1 FMN200   0.0000
    12 C7M         -2.5090    27.6840    46.5160 C.3          1 FMN200   0.0000
    13 C8          -0.5130    29.2550    46.6220 C.ar         1 FMN200   0.0000
    14 C8M          0.2170    28.3880    47.6060 C.3          1 FMN200   0.0000
    15 C9           0.1630    30.3670    46.1370 C.ar         1 FMN200   0.0000
    16 C9A         -0.3350    31.1110    45.0600 C.ar         1 FMN200   0.0000
    17 N10          0.3370    32.2350    44.5710 N.pl3        1 FMN200   0.0000
    18 C10         -0.2050    32.9560    43.5120 C.2          1 FMN200   0.0000
    19 C1'          1.6580    32.6690    45.1650 C.3          1 FMN200   0.0000
    20 C2'          2.8530    32.1440    44.3580 C.3          1 FMN200   0.0000
    21 O2'          2.7410    30.7490    44.1320 O.3          1 FMN200   0.0000
    22 C3'          4.1570    32.4400    45.1070 C.3          1 FMN200   0.0000
    23 O3'          4.2510    33.8230    45.3990 O.3          1 FMN200   0.0000
    24 C4'          5.4100    31.9940    44.3460 C.3          1 FMN200   0.0000
    25 O4'          6.5700    32.3680    45.0690 O.3          1 FMN200   0.0000
    26 C5'          5.5330    32.5970    42.9500 C.3          1 FMN200   0.0000
    27 O5'          6.6700    31.9820    42.3840 O.3          1 FMN200   0.0000
    28 P            7.3150    32.4770    40.9910 P.3          1 FMN200   0.0000
    29 O1P          8.0760    33.7710    41.2970 O.co2        1 FMN200   0.0000
    30 O2P          6.1870    32.7050    39.9710 O.co2        1 FMN200  -1.0000
    31 O3P          8.2770    31.3760    40.6380 O.co2        1 FMN200  -1.0000
    32 H1          -1.6229    34.9200    40.6219 H            1 FMN200   0.0000
    33 H2          -3.0727    29.3215    44.5209 H            1 FMN200   0.0000
    34 H7M1        -2.0256    27.2483    47.2753 H            1 FMN200   0.0000
    35 H7M2        -3.4026    28.0048    46.8299 H            1 FMN200   0.0000
    36 H7M3        -2.6333    27.0224    45.7765 H            1 FMN200   0.0000
    37 H8M1         1.0407    28.8604    47.9196 H            1 FMN200   0.0000
    38 H8M2        -0.3768    28.1985    48.3880 H            1 FMN200   0.0000
    39 H8M3         0.4734    27.5274    47.1659 H            1 FMN200   0.0000
    40 H9           1.0234    30.6423    46.5658 H            1 FMN200   0.0000
    41 H1'1         1.7216    32.3198    46.0999 H            1 FMN200   0.0000
    42 H1'2         1.6925    33.6683    45.1794 H            1 FMN200   0.0000
    43 H2'          2.8757    32.6124    43.4748 H            1 FMN200   0.0000
    44 H13          2.2470    30.5884    43.2775 H            1 FMN200   0.0000
    45 H3'          4.1320    31.9439    45.9749 H            1 FMN200   0.0000
    46 H15          5.0695    34.2003    44.9658 H            1 FMN200   0.0000
    47 H4'          5.3942    30.9976    44.2624 H            1 FMN200   0.0000
    48 H17          7.3029    31.7129    44.8854 H            1 FMN200   0.0000
    49 H5'1         5.6602    33.5873    43.0051 H            1 FMN200   0.0000
    50 H5'2         4.7177    32.3953    42.4072 H            1 FMN200   0.0000
@<TRIPOS>BOND
     1    1    2       1
     2    1   18       2
     3    2    3       2
     4    2    4       1
     5    4    5       1
     6    5    6       2
     7    5    7       1
     8    7    8       2
     9    7   18       1
    10    8    9       1
    11    9   10      ar
    12    9   16      ar
    13   10   11      ar
    14   11   12       1
    15   11   13      ar
    16   13   14       1
    17   13   15      ar
    18   15   16      ar
    19   16   17       1
    20   17   18       1
    21   17   19       1
    22   19   20       1
    23   20   21       1
    24   20   22       1
    25   22   23       1
    26   22   24       1
    27   24   25       1
    28   24   26       1
    29   26   27       1
    30   27   28       1
    31   28   29      ar
    32   28   30      ar
    33   28   31      ar
    34    4   32       1
    35   10   33       1
    36   12   34       1
    37   12   35       1
    38   12   36       1
    39   14   37       1
    40   14   38       1
    41   14   39       1
    42   15   40       1
    43   19   41       1
    44   19   42       1
    45   20   43       1
    46   21   44       1
    47   22   45       1
    48   23   46       1
    49   24   47       1
    50   25   48       1
    51   26   49       1
    52   26   50       1
@<TRIPOS>SUBSTRUCTURE
     1 FMN200      1 GROUP             4 A     FMN     0 **** FMN A 200
