@<TRIPOS>MOLECULE
1tu3_GNP_5_ligand
   45    47     1     0     0
SMALL
NO_CHARGES


@<TRIPOS>ATOM
     1 PG          36.2260     6.4160    54.0700 P.3          1 GNP5202   0.0000
     2 O1G         35.2370     7.4090    54.5210 O.co2        1 GNP5202   0.0000
     3 O2G         36.2190     5.2420    55.0060 O.co2        1 GNP5202  -1.0000
     4 O3G         37.6200     6.9730    53.9440 O.co2        1 GNP5202  -1.0000
     5 N3B         35.7170     5.9650    52.5200 N.3          1 GNP5202   0.0000
     6 PB          36.5140     4.8240    51.6620 P.3          1 GNP5202   0.0000
     7 O1B         37.5350     5.4360    50.8080 O.co2        1 GNP5202   0.0000
     8 O2B         36.9110     3.7950    52.6880 O.co2        1 GNP5202  -1.0000
     9 O3A         35.3520     4.1790    50.6720 O.3          1 GNP5202   0.0000
    10 PA          34.6120     2.7800    50.7310 P.3          1 GNP5202   0.0000
    11 O1A         35.5060     1.6410    50.4400 O.co2        1 GNP5202   0.0000
    12 O2A         33.8720     2.8130    52.0400 O.co2        1 GNP5202  -1.0000
    13 O5'         33.6650     2.9030    49.5450 O.3          1 GNP5202   0.0000
    14 C5'         32.6370     3.9130    49.4420 C.3          1 GNP5202   0.0000
    15 C4'         31.7260     3.5760    48.2840 C.3          1 GNP5202   0.0000
    16 O4'         32.3330     3.4170    47.0380 O.3          1 GNP5202   0.0000
    17 C3'         30.9200     2.2550    48.5330 C.3          1 GNP5202   0.0000
    18 O3'         29.5210     2.4420    48.2890 O.3          1 GNP5202   0.0000
    19 C2'         31.5590     1.2580    47.5570 C.3          1 GNP5202   0.0000
    20 O2'         30.7280     0.2560    47.1030 O.3          1 GNP5202   0.0000
    21 C1'         32.0080     2.1640    46.4650 C.3          1 GNP5202   0.0000
    22 N9          33.1850     1.5940    45.7940 N.pl3        1 GNP5202   0.0000
    23 C8          34.4720     1.3830    46.4370 C.2          1 GNP5202   0.0000
    24 N7          35.3230     0.8620    45.5860 N.2          1 GNP5202   0.0000
    25 C5          34.5550     0.7240    44.3220 C.2          1 GNP5202   0.0000
    26 C6          34.9800     0.2030    43.0180 C.2          1 GNP5202   0.0000
    27 O6          36.0210    -0.2190    42.6840 O.2          1 GNP5202   0.0000
    28 N1          33.9390     0.2510    42.0950 N.pl3        1 GNP5202   0.0000
    29 C2          32.7130     0.7490    42.4870 C.2          1 GNP5202   0.0000
    30 N2          31.8100     0.6940    41.3790 N.pl3        1 GNP5202   0.0000
    31 N3          32.2540     1.2230    43.5970 N.2          1 GNP5202   0.0000
    32 C4          33.2860     1.1770    44.5110 C.2          1 GNP5202   0.0000
    33 H3B         34.7754     5.6417    52.6144 H            1 GNP5202   0.0000
    34 H5'1        33.0594     4.8060    49.2867 H            1 GNP5202   0.0000
    35 H5'2        32.1063     3.9381    50.2892 H            1 GNP5202   0.0000
    36 H4'         31.0624     4.3193    48.2001 H            1 GNP5202   0.0000
    37 H3'         31.0608     1.9452    49.4733 H            1 GNP5202   0.0000
    38 H6          29.0358     1.5837    48.4561 H            1 GNP5202   0.0000
    39 H2'         32.3609     0.8460    47.9897 H            1 GNP5202   0.0000
    40 H8          30.7865    -0.5300    47.7185 H            1 GNP5202   0.0000
    41 H1'         31.2687     2.2809    45.8019 H            1 GNP5202   0.0000
    42 H10         34.6784     1.6033    47.3903 H            1 GNP5202   0.0000
    43 H11         34.0779    -0.0716    41.1587 H            1 GNP5202   0.0000
    44 H12         30.8694     1.0170    41.4840 H            1 GNP5202   0.0000
    45 H13         32.1193     0.3326    40.4994 H            1 GNP5202   0.0000
@<TRIPOS>BOND
     1    1    2      ar
     2    1    3      ar
     3    1    4      ar
     4    1    5       1
     5    5    6       1
     6    6    7      ar
     7    6    8      ar
     8    6    9       1
     9    9   10       1
    10   10   11      ar
    11   10   12      ar
    12   10   13       1
    13   13   14       1
    14   14   15       1
    15   15   16       1
    16   15   17       1
    17   16   21       1
    18   17   18       1
    19   17   19       1
    20   19   20       1
    21   19   21       1
    22   21   22       1
    23   22   23       1
    24   22   32       1
    25   23   24       2
    26   24   25       1
    27   25   26       1
    28   25   32       2
    29   26   27       2
    30   26   28       1
    31   28   29       1
    32   29   30       1
    33   29   31       2
    34   31   32       1
    35   30   45       1
    36   30   44       1
    37    5   33       1
    38   28   43       1
    39   23   42       1
    40   14   34       1
    41   14   35       1
    42   15   36       1
    43   17   37       1
    44   18   38       1
    45   19   39       1
    46   20   40       1
    47   21   41       1
@<TRIPOS>SUBSTRUCTURE
     1 GNP5202     1 GROUP             4 E     GNP     0 **** GNP E5202
