@<TRIPOS>MOLECULE
3ofu_ID3_2_ligand
   34    34     1     0     0
SMALL
NO_CHARGES


@<TRIPOS>ATOM
     1 C1           0.2680    13.0220   -29.3580 C.3          1 ID3397   0.0000
     2 O1           1.6330    13.0950   -34.5440 O.2          1 ID3397   0.0000
     3 C2           0.0290    12.5880   -27.8310 C.3          1 ID3397   0.0000
     4 C3           1.2130    12.7910   -26.7970 C.3          1 ID3397   0.0000
     5 C4           2.3810    13.5580   -27.4830 C.3          1 ID3397   0.0000
     6 C5           2.6840    13.0180   -28.9020 C.2          1 ID3397   0.0000
     7 C6           1.7570    13.0820   -29.8590 C.2          1 ID3397   0.0000
     8 C7           2.1630    13.1910   -31.3380 C.2          1 ID3397   0.0000
     9 C8           1.5790    13.9290   -32.3760 C.2          1 ID3397   0.0000
    10 C9           2.1040    13.9180   -33.7830 C.2          1 ID3397   0.0000
    11 C16         -0.5360    12.1400   -30.3400 C.3          1 ID3397   0.0000
    12 C17         -0.2540    14.4350   -29.6670 C.3          1 ID3397   0.0000
    13 C18          3.9720    12.3580   -29.2790 C.3          1 ID3397   0.0000
    14 C19          3.1580    14.9270   -34.1350 C.3          1 ID3397   0.0000
    15 H1          -0.1990    11.6143   -27.8323 H            1 ID3397   0.0000
    16 H2          -0.7522    13.1128   -27.4930 H            1 ID3397   0.0000
    17 H3           1.5389    11.8985   -26.4851 H            1 ID3397   0.0000
    18 H4           0.8837    13.3180   -26.0135 H            1 ID3397   0.0000
    19 H5           3.2024    13.4633   -26.9205 H            1 ID3397   0.0000
    20 H6           2.1342    14.5246   -27.5525 H            1 ID3397   0.0000
    21 H7           2.9653    12.6539   -31.5985 H            1 ID3397   0.0000
    22 H8           0.7760    14.4885   -32.1706 H            1 ID3397   0.0000
    23 H9          -0.3612    12.4405   -31.2776 H            1 ID3397   0.0000
    24 H10         -0.2548    11.1858   -30.2379 H            1 ID3397   0.0000
    25 H11         -1.5123    12.2230   -30.1399 H            1 ID3397   0.0000
    26 H12         -0.0796    14.6521   -30.6274 H            1 ID3397   0.0000
    27 H13         -1.2374    14.4732   -29.4898 H            1 ID3397   0.0000
    28 H14          0.2156    15.0986   -29.0847 H            1 ID3397   0.0000
    29 H15          3.9410    12.0926   -30.2426 H            1 ID3397   0.0000
    30 H16          4.7285    12.9955   -29.1330 H            1 ID3397   0.0000
    31 H17          4.1078    11.5446   -28.7134 H            1 ID3397   0.0000
    32 H18          3.3688    15.4831   -33.3311 H            1 ID3397   0.0000
    33 H19          3.9847    14.4534   -34.4388 H            1 ID3397   0.0000
    34 H20          2.8227    15.5168   -34.8697 H            1 ID3397   0.0000
@<TRIPOS>BOND
     1    1    3       1
     2    1    7       1
     3    1   11       1
     4    1   12       1
     5    2   10       2
     6    3    4       1
     7    4    5       1
     8    5    6       1
     9    6    7       2
    10    6   13       1
    11    7    8       1
    12    8    9       2
    13    9   10       1
    14   10   14       1
    15    3   15       1
    16    3   16       1
    17    4   17       1
    18    4   18       1
    19    5   19       1
    20    5   20       1
    21    8   21       1
    22    9   22       1
    23   11   23       1
    24   11   24       1
    25   11   25       1
    26   12   26       1
    27   12   27       1
    28   12   28       1
    29   13   29       1
    30   13   30       1
    31   13   31       1
    32   14   32       1
    33   14   33       1
    34   14   34       1
@<TRIPOS>SUBSTRUCTURE
     1 ID3397      1 GROUP             4 B     ID3     0 **** ID3 B 397
