@<TRIPOS>MOLECULE
4ffw_715_1_ligand
   44    46     1     0     0
SMALL
NO_CHARGES


@<TRIPOS>ATOM
     1 C1          26.2310   -11.0030    50.9740 C.ar         1 715801   0.0000
     2 C2          24.9970   -11.0960    51.6130 C.ar         1 715801   0.0000
     3 C3          24.4590    -9.9820    52.2440 C.ar         1 715801   0.0000
     4 C4          25.1610    -8.7770    52.2360 C.ar         1 715801   0.0000
     5 C5          26.3950    -8.6880    51.5990 C.ar         1 715801   0.0000
     6 C6          26.9280    -9.7980    50.9680 C.ar         1 715801   0.0000
     7 F9          27.0710    -7.5290    51.5910 F            1 715801   0.0000
     8 F10         24.3350   -12.2660    51.6060 F            1 715801   0.0000
     9 C11         23.1170   -10.0560    52.9400 C.3          1 715801   0.0000
    10 C12         22.1190    -9.1620    52.1990 C.3          1 715801   0.0000
    11 C15         20.7100    -9.2070    52.7910 C.3          1 715801   0.0000
    12 C16         20.6750    -8.8670    54.2710 C.2          1 715801   0.0000
    13 N19         19.6550    -9.3140    55.0190 N.am         1 715801   0.0000
    14 N20         22.0460    -9.6000    50.8170 N.4          1 715801   1.0000
    15 O22         21.5600    -8.1730    54.7470 O.2          1 715801   0.0000
    16 C25         18.8100   -10.4720    54.7100 C.3          1 715801   0.0000
    17 C26         17.4720    -9.9030    54.2280 C.3          1 715801   0.0000
    18 N27         17.0040    -8.9130    55.2030 N.pl3        1 715801   0.0000
    19 C28         17.7850    -8.3390    56.1250 C.2          1 715801   0.0000
    20 C29         19.2530    -8.6520    56.2580 C.3          1 715801   0.0000
    21 C39         15.7920    -8.3910    55.3930 C.2          1 715801   0.0000
    22 N40         15.7310    -7.5000    56.3940 N.2          1 715801   0.0000
    23 N41         17.0520    -7.4740    56.8730 N.2          1 715801   0.0000
    24 C42         14.5860    -8.7510    54.5730 C.3          1 715801   0.0000
    25 F43         14.2690   -10.0130    54.7960 F            1 715801   0.0000
    26 F44         14.8560    -8.5760    53.2930 F            1 715801   0.0000
    27 F45         13.5680    -7.9780    54.9060 F            1 715801   0.0000
    28 F46         28.1220    -9.7080    50.3570 F            1 715801   0.0000
    29 H1          26.6176   -11.8046    50.5179 H            1 715801   0.0000
    30 H2          24.7760    -7.9735    52.6900 H            1 715801   0.0000
    31 H3          23.2117    -9.7412    53.8844 H            1 715801   0.0000
    32 H4          22.7886   -11.0005    52.9348 H            1 715801   0.0000
    33 H5          22.4500    -8.2187    52.2225 H            1 715801   0.0000
    34 H6          20.3420   -10.1286    52.6673 H            1 715801   0.0000
    35 H7          20.1373    -8.5506    52.2999 H            1 715801   0.0000
    36 H8          21.3971    -9.0249    50.3189 H            1 715801   0.0000
    37 H9          22.9497    -9.5251    50.3954 H            1 715801   0.0000
    38 H10         18.6751   -11.0315    55.5277 H            1 715801   0.0000
    39 H11         19.2303   -11.0269    53.9920 H            1 715801   0.0000
    40 H12         16.8015   -10.6407    54.1490 H            1 715801   0.0000
    41 H13         17.5935    -9.4662    53.3367 H            1 715801   0.0000
    42 H14         19.7753    -7.8085    56.3832 H            1 715801   0.0000
    43 H15         19.4068    -9.2582    57.0383 H            1 715801   0.0000
    44 H16         21.7410   -10.5518    50.7846 H            1 715801   0.0000
@<TRIPOS>BOND
     1    1    2      ar
     2    1    6      ar
     3    2    3      ar
     4    2    8       1
     5    3    4      ar
     6    3    9       1
     7    4    5      ar
     8    5    6      ar
     9    5    7       1
    10    6   28       1
    11    9   10       1
    12   10   11       1
    13   10   14       1
    14   11   12       1
    15   12   13      am
    16   12   15       2
    17   13   16       1
    18   13   20       1
    19   16   17       1
    20   17   18       1
    21   18   19       1
    22   18   21       1
    23   19   20       1
    24   19   23       2
    25   21   22       2
    26   21   24       1
    27   22   23       1
    28   24   25       1
    29   24   26       1
    30   24   27       1
    31    1   29       1
    32    4   30       1
    33    9   31       1
    34    9   32       1
    35   10   33       1
    36   11   34       1
    37   11   35       1
    38   14   36       1
    39   14   37       1
    40   16   38       1
    41   16   39       1
    42   17   40       1
    43   17   41       1
    44   20   42       1
    45   20   43       1
    46   14   44       1
@<TRIPOS>SUBSTRUCTURE
     1 715801      1 GROUP             4 A     715     0 **** 715 A 801
