@<TRIPOS>MOLECULE
4m0c_FMN_2_ligand
   50    52     1     0     0
SMALL
NO_CHARGES


@<TRIPOS>ATOM
     1 N1          19.8730     3.7640   -27.2770 N.2          1 FMN301   0.0000
     2 C2          18.9480     4.6640   -26.8000 C.2          1 FMN301   0.0000
     3 O2          18.9050     5.7980   -27.2980 O.2          1 FMN301   0.0000
     4 N3          18.0850     4.2890   -25.7800 N.pl3        1 FMN301   0.0000
     5 C4          18.1500     3.0080   -25.2390 C.2          1 FMN301   0.0000
     6 O4          17.4060     2.6520   -24.3200 O.2          1 FMN301   0.0000
     7 C4A         19.0830     2.1030   -25.7270 C.2          1 FMN301   0.0000
     8 N5          19.1560     0.8220   -25.2140 N.2          1 FMN301   0.0000
     9 C5A         20.1160    -0.0670   -25.6980 C.ar         1 FMN301   0.0000
    10 C6          20.2200    -1.3530   -25.1640 C.ar         1 FMN301   0.0000
    11 C7          21.1800    -2.2270   -25.6640 C.ar         1 FMN301   0.0000
    12 C7M         21.2720    -3.6080   -25.0940 C.3          1 FMN301   0.0000
    13 C8          22.0400    -1.8310   -26.6910 C.ar         1 FMN301   0.0000
    14 C8M         23.0750    -2.7780   -27.2300 C.3          1 FMN301   0.0000
    15 C9          21.9410    -0.5460   -27.2220 C.ar         1 FMN301   0.0000
    16 C9A         20.9820     0.3350   -26.7230 C.ar         1 FMN301   0.0000
    17 N10         20.8840     1.6170   -27.2330 N.pl3        1 FMN301   0.0000
    18 C10         19.9460     2.4940   -26.7420 C.2          1 FMN301   0.0000
    19 C1'         21.7910     2.0980   -28.3190 C.3          1 FMN301   0.0000
    20 C2'         23.1100     2.5420   -27.6860 C.3          1 FMN301   0.0000
    21 O2'         22.8610     3.5060   -26.6680 O.3          1 FMN301   0.0000
    22 C3'         24.0090     3.1160   -28.7760 C.3          1 FMN301   0.0000
    23 O3'         24.4230     2.0640   -29.6100 O.3          1 FMN301   0.0000
    24 C4'         25.2540     3.7530   -28.1960 C.3          1 FMN301   0.0000
    25 O4'         26.0460     4.2340   -29.2650 O.3          1 FMN301   0.0000
    26 C5'         26.0890     2.7320   -27.4430 C.3          1 FMN301   0.0000
    27 O5'         27.1580     3.4060   -26.8170 O.3          1 FMN301   0.0000
    28 P           28.6590     2.9530   -27.1420 P.3          1 FMN301   0.0000
    29 O1P         29.5510     3.9290   -26.3910 O.co2        1 FMN301   0.0000
    30 O2P         28.8630     1.5080   -26.7030 O.co2        1 FMN301  -1.0000
    31 O3P         28.9430     3.0770   -28.6110 O.co2        1 FMN301  -1.0000
    32 H1          17.4129     4.9424   -25.4318 H            1 FMN301   0.0000
    33 H2          19.6090    -1.6436   -24.4276 H            1 FMN301   0.0000
    34 H7M1        22.0043    -4.1103   -25.5538 H            1 FMN301   0.0000
    35 H7M2        21.4696    -3.5522   -24.1153 H            1 FMN301   0.0000
    36 H7M3        20.4036    -4.0842   -25.2321 H            1 FMN301   0.0000
    37 H8M1        23.5949    -2.3261   -27.9549 H            1 FMN301   0.0000
    38 H8M2        23.6953    -3.0481   -26.4936 H            1 FMN301   0.0000
    39 H8M3        22.6234    -3.5899   -27.6001 H            1 FMN301   0.0000
    40 H9          22.5545    -0.2573   -27.9570 H            1 FMN301   0.0000
    41 H1'1        21.3684     2.8693   -28.7949 H            1 FMN301   0.0000
    42 H1'2        21.9610     1.3577   -28.9694 H            1 FMN301   0.0000
    43 H2'         23.5594     1.7470   -27.2786 H            1 FMN301   0.0000
    44 H13         22.2769     3.1033   -25.9633 H            1 FMN301   0.0000
    45 H3'         23.5018     3.7916   -29.3111 H            1 FMN301   0.0000
    46 H15         24.0280     1.2051   -29.2841 H            1 FMN301   0.0000
    47 H4'         25.0030     4.5066   -27.5885 H            1 FMN301   0.0000
    48 H17         26.9391     3.7844   -29.2468 H            1 FMN301   0.0000
    49 H5'1        26.4469     2.0511   -28.0819 H            1 FMN301   0.0000
    50 H5'2        25.5256     2.2778   -26.7528 H            1 FMN301   0.0000
@<TRIPOS>BOND
     1    1    2       1
     2    1   18       2
     3    2    3       2
     4    2    4       1
     5    4    5       1
     6    5    6       2
     7    5    7       1
     8    7    8       2
     9    7   18       1
    10    8    9       1
    11    9   10      ar
    12    9   16      ar
    13   10   11      ar
    14   11   12       1
    15   11   13      ar
    16   13   14       1
    17   13   15      ar
    18   15   16      ar
    19   16   17       1
    20   17   18       1
    21   17   19       1
    22   19   20       1
    23   20   21       1
    24   20   22       1
    25   22   23       1
    26   22   24       1
    27   24   25       1
    28   24   26       1
    29   26   27       1
    30   27   28       1
    31   28   29      ar
    32   28   30      ar
    33   28   31      ar
    34    4   32       1
    35   10   33       1
    36   12   34       1
    37   12   35       1
    38   12   36       1
    39   14   37       1
    40   14   38       1
    41   14   39       1
    42   15   40       1
    43   19   41       1
    44   19   42       1
    45   20   43       1
    46   21   44       1
    47   22   45       1
    48   23   46       1
    49   24   47       1
    50   25   48       1
    51   26   49       1
    52   26   50       1
@<TRIPOS>SUBSTRUCTURE
     1 FMN301      1 GROUP             4 B     FMN     0 **** FMN B 301
