@<TRIPOS>MOLECULE
4p13_FAD_4_ligand
   84    89     1     0     0
SMALL
NO_CHARGES


@<TRIPOS>ATOM
     1 PA         -53.8150   -20.3650   -11.1100 P.3          1 FAD401   0.0000
     2 O1A        -52.7240   -20.8910   -11.9380 O.co2        1 FAD401   0.0000
     3 O2A        -55.0980   -21.0960   -10.8560 O.co2        1 FAD401  -1.0000
     4 O5B        -53.2060   -20.0100    -9.6720 O.3          1 FAD401   0.0000
     5 C5B        -54.0630   -19.5370    -8.6160 C.3          1 FAD401   0.0000
     6 C4B        -53.1760   -19.0490    -7.4960 C.3          1 FAD401   0.0000
     7 O4B        -52.3270   -20.1200    -7.0360 O.3          1 FAD401   0.0000
     8 C3B        -52.2480   -17.8770    -7.8300 C.3          1 FAD401   0.0000
     9 O3B        -52.0990   -17.0800    -6.6590 O.3          1 FAD401   0.0000
    10 C2B        -50.9230   -18.5770    -8.1320 C.3          1 FAD401   0.0000
    11 O2B        -49.7960   -17.7360    -7.9310 O.3          1 FAD401   0.0000
    12 C1B        -50.9660   -19.7220    -7.1220 C.3          1 FAD401   0.0000
    13 N9A        -50.1970   -20.8920    -7.5230 N.pl3        1 FAD401   0.0000
    14 C8A        -50.4160   -21.6940    -8.6150 C.2          1 FAD401   0.0000
    15 N7A        -49.5500   -22.6700    -8.7440 N.2          1 FAD401   0.0000
    16 C5A        -48.7010   -22.5020    -7.6580 C.ar         1 FAD401   0.0000
    17 C6A        -47.5850   -23.2320    -7.2020 C.ar         1 FAD401   0.0000
    18 N6A        -47.0440   -24.2600    -7.8760 N.pl3        1 FAD401   0.0000
    19 N1A        -47.0000   -22.8350    -6.0470 N.ar         1 FAD401   0.0000
    20 C2A        -47.4920   -21.7660    -5.4090 C.ar         1 FAD401   0.0000
    21 N3A        -48.5230   -20.9910    -5.7560 N.ar         1 FAD401   0.0000
    22 C4A        -49.0910   -21.4120    -6.8950 C.ar         1 FAD401   0.0000
    23 N1         -52.9820   -15.3570   -20.5690 N.2          1 FAD401   0.0000
    24 C2         -52.7340   -15.5130   -21.9210 C.2          1 FAD401   0.0000
    25 O2         -52.4310   -16.6200   -22.3900 O.2          1 FAD401   0.0000
    26 N3         -52.7950   -14.3970   -22.7540 N.pl3        1 FAD401   0.0000
    27 C4         -53.0890   -13.0990   -22.3460 C.2          1 FAD401   0.0000
    28 O4         -53.1740   -12.1930   -23.1690 O.2          1 FAD401   0.0000
    29 C4X        -53.3280   -12.9470   -20.9230 C.2          1 FAD401   0.0000
    30 N5         -53.7690   -11.7770   -20.4900 N.2          1 FAD401   0.0000
    31 C5X        -54.3490   -11.7320   -19.2300 C.ar         1 FAD401   0.0000
    32 C6         -55.1260   -10.6190   -18.8830 C.ar         1 FAD401   0.0000
    33 C7         -55.8550   -10.5840   -17.6960 C.ar         1 FAD401   0.0000
    34 C7M        -56.7060    -9.3760   -17.3820 C.3          1 FAD401   0.0000
    35 C8         -55.7800   -11.6750   -16.8100 C.ar         1 FAD401   0.0000
    36 C8M        -56.5750   -11.7140   -15.5300 C.3          1 FAD401   0.0000
    37 C9         -55.0010   -12.7730   -17.1470 C.ar         1 FAD401   0.0000
    38 C9A        -54.3100   -12.8310   -18.3550 C.ar         1 FAD401   0.0000
    39 N10        -53.7160   -14.0300   -18.8170 N.pl3        1 FAD401   0.0000
    40 C10        -53.2730   -14.1450   -20.1060 C.2          1 FAD401   0.0000
    41 C1'        -53.7400   -15.2080   -17.9250 C.3          1 FAD401   0.0000
    42 C2'        -52.7940   -15.0670   -16.7360 C.3          1 FAD401   0.0000
    43 O2'        -51.4660   -15.3410   -17.1850 O.3          1 FAD401   0.0000
    44 C3'        -53.2050   -16.0490   -15.6380 C.3          1 FAD401   0.0000
    45 O3'        -54.3380   -15.4880   -14.9740 O.3          1 FAD401   0.0000
    46 C4'        -52.0600   -16.2870   -14.6480 C.3          1 FAD401   0.0000
    47 O4'        -50.9870   -16.9040   -15.3650 O.3          1 FAD401   0.0000
    48 C5'        -52.4390   -17.1140   -13.4390 C.3          1 FAD401   0.0000
    49 O5'        -53.0860   -18.3320   -13.8920 O.3          1 FAD401   0.0000
    50 P          -54.5140   -18.6340   -13.3030 P.3          1 FAD401   0.0000
    51 O1P        -55.3700   -17.4270   -13.2870 O.co2        1 FAD401   0.0000
    52 O2P        -54.9540   -19.9000   -13.9790 O.co2        1 FAD401  -1.0000
    53 O3P        -54.2600   -18.9290   -11.7590 O.3          1 FAD401   0.0000
    54 H5B1       -54.6460   -20.2813    -8.2902 H            1 FAD401   0.0000
    55 H5B2       -54.6346   -18.7876    -8.9500 H            1 FAD401   0.0000
    56 H4B        -53.7630   -18.7715    -6.7354 H            1 FAD401   0.0000
    57 H3B        -52.5790   -17.3443    -8.6089 H            1 FAD401   0.0000
    58 H5         -52.9941   -16.7387    -6.3719 H            1 FAD401   0.0000
    59 H2B        -50.9254   -18.9369    -9.0650 H            1 FAD401   0.0000
    60 H7         -49.9997   -17.0719    -7.2116 H            1 FAD401   0.0000
    61 H1B        -50.6505   -19.3988    -6.2298 H            1 FAD401   0.0000
    62 H8A        -51.1696   -21.5470    -9.2557 H            1 FAD401   0.0000
    63 H6A1       -46.2511   -24.7411    -7.5021 H            1 FAD401   0.0000
    64 H6A2       -47.4341   -24.5443    -8.7518 H            1 FAD401   0.0000
    65 H2A        -47.0262   -21.5144    -4.5606 H            1 FAD401   0.0000
    66 H13        -52.6122   -14.5410   -23.7265 H            1 FAD401   0.0000
    67 H14        -55.1581    -9.8330   -19.5003 H            1 FAD401   0.0000
    68 H7M1       -57.1603    -9.5082   -16.5010 H            1 FAD401   0.0000
    69 H7M2       -56.1266    -8.5620   -17.3395 H            1 FAD401   0.0000
    70 H7M3       -57.3945    -9.2581   -18.0976 H            1 FAD401   0.0000
    71 H8M1       -56.3837   -12.5672   -15.0447 H            1 FAD401   0.0000
    72 H8M2       -56.3178   -10.9380   -14.9541 H            1 FAD401   0.0000
    73 H8M3       -57.5509   -11.6627   -15.7420 H            1 FAD401   0.0000
    74 H21        -54.9343   -13.5396   -16.5083 H            1 FAD401   0.0000
    75 H1'1       -53.4723   -16.0142   -18.4527 H            1 FAD401   0.0000
    76 H1'2       -54.6709   -15.3292   -17.5804 H            1 FAD401   0.0000
    77 H2'        -52.8402   -14.1328   -16.3822 H            1 FAD401   0.0000
    78 H25        -50.9336   -15.7301   -16.4333 H            1 FAD401   0.0000
    79 H3'        -53.4656   -16.9195   -16.0555 H            1 FAD401   0.0000
    80 H27        -54.6369   -16.1049   -14.2459 H            1 FAD401   0.0000
    81 H4'        -51.7421   -15.3958   -14.3244 H            1 FAD401   0.0000
    82 H29        -50.2229   -17.0719   -14.7421 H            1 FAD401   0.0000
    83 H5'1       -53.0673   -16.5947   -12.8597 H            1 FAD401   0.0000
    84 H5'2       -51.6173   -17.3435   -12.9174 H            1 FAD401   0.0000
@<TRIPOS>BOND
     1    1    2      ar
     2    1    3      ar
     3    1    4       1
     4    1   53       1
     5    4    5       1
     6    5    6       1
     7    6    7       1
     8    6    8       1
     9    7   12       1
    10    8    9       1
    11    8   10       1
    12   10   11       1
    13   10   12       1
    14   12   13       1
    15   13   14       1
    16   13   22       1
    17   14   15       2
    18   15   16       1
    19   16   17      ar
    20   16   22      ar
    21   17   18       1
    22   17   19      ar
    23   19   20      ar
    24   20   21      ar
    25   21   22      ar
    26   23   24       1
    27   23   40       2
    28   24   25       2
    29   24   26       1
    30   26   27       1
    31   27   28       2
    32   27   29       1
    33   29   30       2
    34   29   40       1
    35   30   31       1
    36   31   32      ar
    37   31   38      ar
    38   32   33      ar
    39   33   34       1
    40   33   35      ar
    41   35   36       1
    42   35   37      ar
    43   37   38      ar
    44   38   39       1
    45   39   40       1
    46   39   41       1
    47   41   42       1
    48   42   43       1
    49   42   44       1
    50   44   45       1
    51   44   46       1
    52   46   47       1
    53   46   48       1
    54   48   49       1
    55   49   50       1
    56   50   51      ar
    57   50   52      ar
    58   50   53       1
    59   48   84       1
    60    5   54       1
    61    5   55       1
    62    6   56       1
    63    8   57       1
    64    9   58       1
    65   10   59       1
    66   11   60       1
    67   12   61       1
    68   14   62       1
    69   18   63       1
    70   18   64       1
    71   20   65       1
    72   26   66       1
    73   32   67       1
    74   34   68       1
    75   34   69       1
    76   34   70       1
    77   36   71       1
    78   36   72       1
    79   36   73       1
    80   37   74       1
    81   41   75       1
    82   41   76       1
    83   42   77       1
    84   43   78       1
    85   44   79       1
    86   45   80       1
    87   46   81       1
    88   47   82       1
    89   48   83       1
@<TRIPOS>SUBSTRUCTURE
     1 FAD401      1 GROUP             4 D     FAD     0 **** FAD D 401
