@<TRIPOS>MOLECULE
3ah5_FAD_5_ligand
   84    89     1     0     0
SMALL
NO_CHARGES


@<TRIPOS>ATOM
     1 PA          32.4400    30.1730    44.7050 P.3          1 FAD240   0.0000
     2 O1A         32.8590    30.7120    43.3420 O.co2        1 FAD240   0.0000
     3 O2A         33.2330    29.0450    45.3130 O.co2        1 FAD240  -1.0000
     4 O5B         30.9730    30.0100    44.7430 O.3          1 FAD240   0.0000
     5 C5B         30.2980    29.5210    45.8520 C.3          1 FAD240   0.0000
     6 C4B         29.2910    30.4970    46.4340 C.3          1 FAD240   0.0000
     7 O4B         28.7340    29.6590    47.4750 O.3          1 FAD240   0.0000
     8 C3B         29.8770    31.7180    47.1620 C.3          1 FAD240   0.0000
     9 O3B         29.6230    32.9470    46.5090 O.3          1 FAD240   0.0000
    10 C2B         29.2450    31.6740    48.5450 C.3          1 FAD240   0.0000
    11 O2B         28.1000    32.4780    48.7290 O.3          1 FAD240   0.0000
    12 C1B         28.9670    30.2050    48.7760 C.3          1 FAD240   0.0000
    13 N9A         30.0420    29.3800    49.4120 N.pl3        1 FAD240   0.0000
    14 C8A         30.9150    28.4820    48.8290 C.2          1 FAD240   0.0000
    15 N7A         31.7420    27.8960    49.6440 N.2          1 FAD240   0.0000
    16 C5A         31.4070    28.4290    50.8710 C.ar         1 FAD240   0.0000
    17 C6A         31.9370    28.1930    52.1760 C.ar         1 FAD240   0.0000
    18 N6A         32.9360    27.3260    52.3760 N.pl3        1 FAD240   0.0000
    19 N1A         31.3920    28.8770    53.2220 N.ar         1 FAD240   0.0000
    20 C2A         30.3710    29.7530    52.9760 C.ar         1 FAD240   0.0000
    21 N3A         29.7980    30.0500    51.7950 N.ar         1 FAD240   0.0000
    22 C4A         30.3890    29.3260    50.7570 C.ar         1 FAD240   0.0000
    23 N1          41.6640    35.0010    47.6060 N.2          1 FAD240   0.0000
    24 C2          42.7110    35.0290    48.4580 C.2          1 FAD240   0.0000
    25 O2          43.0110    34.0470    49.1710 O.2          1 FAD240   0.0000
    26 N3          43.5130    36.1790    48.5210 N.pl3        1 FAD240   0.0000
    27 C4          43.2790    37.3510    47.7800 C.2          1 FAD240   0.0000
    28 O4          44.0540    38.3250    47.8950 O.2          1 FAD240   0.0000
    29 C4X         42.1460    37.3120    46.9190 C.2          1 FAD240   0.0000
    30 N5          41.8330    38.4370    46.1180 N.2          1 FAD240   0.0000
    31 C5X         40.7540    38.3490    45.2320 C.ar         1 FAD240   0.0000
    32 C6          40.4460    39.4820    44.4010 C.ar         1 FAD240   0.0000
    33 C7          39.4070    39.4630    43.4920 C.ar         1 FAD240   0.0000
    34 C7M         39.1740    40.7260    42.6470 C.3          1 FAD240   0.0000
    35 C8          38.5950    38.2950    43.3580 C.ar         1 FAD240   0.0000
    36 C8M         37.4380    38.2000    42.3880 C.3          1 FAD240   0.0000
    37 C9          38.8890    37.1360    44.1870 C.ar         1 FAD240   0.0000
    38 C9A         39.9500    37.1340    45.1200 C.ar         1 FAD240   0.0000
    39 N10         40.3130    35.9940    45.9840 N.pl3        1 FAD240   0.0000
    40 C10         41.3840    36.1070    46.8500 C.2          1 FAD240   0.0000
    41 C1'         39.6230    34.6790    46.0020 C.3          1 FAD240   0.0000
    42 C2'         38.1930    34.7710    46.3950 C.3          1 FAD240   0.0000
    43 O2'         38.1530    35.4110    47.6790 O.3          1 FAD240   0.0000
    44 C3'         37.5400    33.3960    46.4250 C.3          1 FAD240   0.0000
    45 O3'         37.6380    32.8170    45.1350 O.3          1 FAD240   0.0000
    46 C4'         36.0820    33.5810    46.7480 C.3          1 FAD240   0.0000
    47 O4'         35.9960    34.1980    48.0320 O.3          1 FAD240   0.0000
    48 C5'         35.2560    32.3090    46.8300 C.3          1 FAD240   0.0000
    49 O5'         33.9860    32.9150    46.9970 O.3          1 FAD240   0.0000
    50 P           33.0680    32.8520    45.7470 P.3          1 FAD240   0.0000
    51 O1P         31.8850    33.6600    46.0140 O.co2        1 FAD240   0.0000
    52 O2P         33.9060    33.1320    44.5500 O.co2        1 FAD240  -1.0000
    53 O3P         32.6240    31.3350    45.7360 O.3          1 FAD240   0.0000
    54 H5B1        30.9702    29.3019    46.5592 H            1 FAD240   0.0000
    55 H5B2        29.8125    28.6888    45.5843 H            1 FAD240   0.0000
    56 H4B         28.5999    30.7622    45.7616 H            1 FAD240   0.0000
    57 H3B         30.8655    31.5975    47.2532 H            1 FAD240   0.0000
    58 H5          30.4906    33.3842    46.2722 H            1 FAD240   0.0000
    59 H2B         29.9349    31.9646    49.2080 H            1 FAD240   0.0000
    60 H7          27.3864    32.1932    48.0890 H            1 FAD240   0.0000
    61 H1B         28.1306    30.1166    49.3169 H            1 FAD240   0.0000
    62 H8A         30.9113    28.2951    47.8466 H            1 FAD240   0.0000
    63 H6A1        33.2913    27.1767    53.2988 H            1 FAD240   0.0000
    64 H6A2        33.3275    26.8272    51.6027 H            1 FAD240   0.0000
    65 H2A         30.0044    30.2328    53.7732 H            1 FAD240   0.0000
    66 H13         44.3033    36.1640    49.1335 H            1 FAD240   0.0000
    67 H14         41.0017    40.3092    44.4843 H            1 FAD240   0.0000
    68 H7M1        38.3972    40.5788    42.0347 H            1 FAD240   0.0000
    69 H7M2        38.9809    41.4998    43.2503 H            1 FAD240   0.0000
    70 H7M3        39.9923    40.9210    42.1063 H            1 FAD240   0.0000
    71 H8M1        37.0135    37.2977    42.4628 H            1 FAD240   0.0000
    72 H8M2        36.7627    38.9050    42.6046 H            1 FAD240   0.0000
    73 H8M3        37.7730    38.3345    41.4554 H            1 FAD240   0.0000
    74 H21         38.3234    36.3166    44.0937 H            1 FAD240   0.0000
    75 H1'1        40.0932    34.0827    46.6526 H            1 FAD240   0.0000
    76 H1'2        39.6755    34.2804    45.0864 H            1 FAD240   0.0000
    77 H2'         37.7111    35.3441    45.7322 H            1 FAD240   0.0000
    78 H25         38.0821    36.4009    47.5560 H            1 FAD240   0.0000
    79 H3'         37.9802    32.8122    47.1071 H            1 FAD240   0.0000
    80 H27         36.7208    32.6320    44.7821 H            1 FAD240   0.0000
    81 H4'         35.6737    34.1896    46.0676 H            1 FAD240   0.0000
    82 H29         36.7996    34.7747    48.1792 H            1 FAD240   0.0000
    83 H5'1        35.5111    31.7405    47.6122 H            1 FAD240   0.0000
    84 H5'2        35.3104    31.7664    45.9918 H            1 FAD240   0.0000
@<TRIPOS>BOND
     1    1    2      ar
     2    1    3      ar
     3    1    4       1
     4    1   53       1
     5    4    5       1
     6    5    6       1
     7    6    7       1
     8    6    8       1
     9    7   12       1
    10    8    9       1
    11    8   10       1
    12   10   11       1
    13   10   12       1
    14   12   13       1
    15   13   14       1
    16   13   22       1
    17   14   15       2
    18   15   16       1
    19   16   17      ar
    20   16   22      ar
    21   17   18       1
    22   17   19      ar
    23   19   20      ar
    24   20   21      ar
    25   21   22      ar
    26   23   24       1
    27   23   40       2
    28   24   25       2
    29   24   26       1
    30   26   27       1
    31   27   28       2
    32   27   29       1
    33   29   30       2
    34   29   40       1
    35   30   31       1
    36   31   32      ar
    37   31   38      ar
    38   32   33      ar
    39   33   34       1
    40   33   35      ar
    41   35   36       1
    42   35   37      ar
    43   37   38      ar
    44   38   39       1
    45   39   40       1
    46   39   41       1
    47   41   42       1
    48   42   43       1
    49   42   44       1
    50   44   45       1
    51   44   46       1
    52   46   47       1
    53   46   48       1
    54   48   49       1
    55   49   50       1
    56   50   51      ar
    57   50   52      ar
    58   50   53       1
    59   48   84       1
    60    5   54       1
    61    5   55       1
    62    6   56       1
    63    8   57       1
    64    9   58       1
    65   10   59       1
    66   11   60       1
    67   12   61       1
    68   14   62       1
    69   18   63       1
    70   18   64       1
    71   20   65       1
    72   26   66       1
    73   32   67       1
    74   34   68       1
    75   34   69       1
    76   34   70       1
    77   36   71       1
    78   36   72       1
    79   36   73       1
    80   37   74       1
    81   41   75       1
    82   41   76       1
    83   42   77       1
    84   43   78       1
    85   44   79       1
    86   45   80       1
    87   46   81       1
    88   47   82       1
    89   48   83       1
@<TRIPOS>SUBSTRUCTURE
     1 FAD240      1 GROUP             4 D     FAD     0 **** FAD D 240
