@<TRIPOS>MOLECULE
1wg8_SAM_1_ligand
   50    52     1     0     0
SMALL
NO_CHARGES


@<TRIPOS>ATOM
     1 N           50.4640    80.3730    11.0760 N.4          1 SAM3142   1.0000
     2 CA          49.7000    81.4860    10.4290 C.3          1 SAM3142   0.0000
     3 C           48.4730    81.8410    11.2580 C.2          1 SAM3142   0.0000
     4 O           48.2580    81.2030    12.2880 O.co2        1 SAM3142   0.0000
     5 OXT         47.7550    82.7850    10.7980 O.co2        1 SAM3142  -1.0000
     6 CB          49.2510    81.0570     9.0280 C.3          1 SAM3142   0.0000
     7 CG          50.4240    81.0930     8.1140 C.3          1 SAM3142   0.0000
     8 SD          50.1700    80.6780     6.3640 S.3          1 SAM3142   1.0000
     9 CE          49.8720    78.8950     6.4400 C.3          1 SAM3142   0.0000
    10 C5'         51.8240    80.8520     5.7700 C.3          1 SAM3142   0.0000
    11 C4'         52.3190    82.2860     5.5510 C.3          1 SAM3142   0.0000
    12 O4'         53.6970    82.1570     5.1900 O.3          1 SAM3142   0.0000
    13 C3'         51.6870    82.9060     4.3010 C.3          1 SAM3142   0.0000
    14 O3'         51.0760    84.1080     4.8410 O.3          1 SAM3142   0.0000
    15 C2'         52.8310    83.3560     3.3770 C.3          1 SAM3142   0.0000
    16 O2'         52.7870    84.5750     2.6550 O.3          1 SAM3142   0.0000
    17 C1'         54.0730    83.1260     4.2680 C.3          1 SAM3142   0.0000
    18 N9          55.2690    82.6390     3.6010 N.pl3        1 SAM3142   0.0000
    19 C8          55.4440    81.5020     2.8440 C.2          1 SAM3142   0.0000
    20 N7          56.6660    81.3400     2.3950 N.2          1 SAM3142   0.0000
    21 C5          57.3560    82.4480     2.8910 C.ar         1 SAM3142   0.0000
    22 C6          58.7210    82.8750     2.7750 C.ar         1 SAM3142   0.0000
    23 N6          59.6270    82.1720     2.0820 N.pl3        1 SAM3142   0.0000
    24 N1          59.1250    84.0350     3.3960 N.ar         1 SAM3142   0.0000
    25 C2          58.1860    84.7510     4.1040 C.ar         1 SAM3142   0.0000
    26 N3          56.8680    84.4490     4.2760 N.ar         1 SAM3142   0.0000
    27 C4          56.5090    83.2690     3.6370 C.ar         1 SAM3142   0.0000
    28 H1          50.5093    79.5930    10.4519 H            1 SAM3142   0.0000
    29 H2          51.3903    80.6841    11.2886 H            1 SAM3142   0.0000
    30 HA          50.2901    82.2898    10.3537 H            1 SAM3142   0.0000
    31 HB1         48.5464    81.6835     8.6948 H            1 SAM3142   0.0000
    32 HB2         48.8815    80.1284     9.0636 H            1 SAM3142   0.0000
    33 HG1         51.0997    80.4503     8.4750 H            1 SAM3142   0.0000
    34 HG2         50.7957    82.0208     8.1467 H            1 SAM3142   0.0000
    35 HE1         49.7153    78.5436     5.5170 H            1 SAM3142   0.0000
    36 HE2         50.6685    78.4406     6.8389 H            1 SAM3142   0.0000
    37 HE3         49.0675    78.7153     7.0061 H            1 SAM3142   0.0000
    38 H5'1        51.8858    80.3713     4.8953 H            1 SAM3142   0.0000
    39 H5'2        52.4333    80.4172     6.4331 H            1 SAM3142   0.0000
    40 H4'         52.1925    82.8576     6.3617 H            1 SAM3142   0.0000
    41 H3'         51.0318    82.3002     3.8496 H            1 SAM3142   0.0000
    42 H15         51.7819    84.6850     5.2519 H            1 SAM3142   0.0000
    43 H2'         52.8859    82.6459     2.6750 H            1 SAM3142   0.0000
    44 H17         53.1868    85.3052     3.2090 H            1 SAM3142   0.0000
    45 H1'         54.2900    83.9732     4.7529 H            1 SAM3142   0.0000
    46 H19         54.7045    80.8565     2.6533 H            1 SAM3142   0.0000
    47 H20         60.5709    82.4965     2.0200 H            1 SAM3142   0.0000
    48 H21         59.3593    81.3228     1.6267 H            1 SAM3142   0.0000
    49 H22         58.5083    85.5898     4.5429 H            1 SAM3142   0.0000
    50 H23         50.0027    80.0985    11.9197 H            1 SAM3142   0.0000
@<TRIPOS>BOND
     1    1    2       1
     2    2    3       1
     3    2    6       1
     4    3    4      ar
     5    3    5      ar
     6    6    7       1
     7    7    8       1
     8    8    9       1
     9    8   10       1
    10   10   11       1
    11   11   12       1
    12   11   13       1
    13   12   17       1
    14   13   14       1
    15   13   15       1
    16   15   16       1
    17   15   17       1
    18   17   18       1
    19   18   19       1
    20   18   27       1
    21   19   20       2
    22   20   21       1
    23   21   22      ar
    24   21   27      ar
    25   22   23       1
    26   22   24      ar
    27   24   25      ar
    28   25   26      ar
    29   26   27      ar
    30    1   28       1
    31    1   29       1
    32    2   30       1
    33    1   50       1
    34    6   31       1
    35    6   32       1
    36    7   33       1
    37    7   34       1
    38    9   35       1
    39    9   36       1
    40    9   37       1
    41   10   38       1
    42   10   39       1
    43   11   40       1
    44   13   41       1
    45   14   42       1
    46   15   43       1
    47   16   44       1
    48   17   45       1
    49   19   46       1
    50   23   47       1
    51   23   48       1
    52   25   49       1
@<TRIPOS>SUBSTRUCTURE
     1 SAM3142     1 GROUP             4 A     SAM     0 **** SAM A3142
