@<TRIPOS>MOLECULE
3oht_1N1_2_ligand
   60    63     1     0     0
SMALL
NO_CHARGES


@<TRIPOS>ATOM
     1 C1           1.2910    10.9370    18.3800 C.2          1 1N12000   0.0000
     2 C2           0.9530    10.2010    17.3220 C.2          1 1N12000   0.0000
     3 C3          -0.4720     9.8300    16.9140 C.2          1 1N12000   0.0000
     4 N6          11.7450     9.6900    15.6300 N.4          1 1N12000   1.0000
     5 C7          -5.4170     9.2690    17.5260 C.ar         1 1N12000   0.0000
     6 C8          -4.5350     8.1900    17.5380 C.ar         1 1N12000   0.0000
     7 C9          -3.1610     8.3880    17.6660 C.ar         1 1N12000   0.0000
     8 C10         -2.2420     7.1530    17.6750 C.3          1 1N12000   0.0000
     9 C11          5.4480    10.0950    16.5770 C.ar         1 1N12000   0.0000
    10 C12          6.8150    10.3740    16.5020 C.ar         1 1N12000   0.0000
    11 C13          7.5570     9.8230    15.4540 C.ar         1 1N12000   0.0000
    12 C14          5.6140     8.7820    14.6540 C.ar         1 1N12000   0.0000
    13 C15          4.9260     7.9000    13.6240 C.3          1 1N12000   0.0000
    14 C16          9.7280     9.3810    14.2610 C.3          1 1N12000   0.0000
    15 C19          9.6620    10.9950    16.2260 C.3          1 1N12000   0.0000
    16 C20         12.9060     8.9920    16.2230 C.3          1 1N12000   0.0000
    17 C21         14.0240    10.0050    16.5300 C.3          1 1N12000   0.0000
    18 N            4.7090    10.6030    17.5660 N.pl3        1 1N12000   0.0000
    19 C            3.3700    10.5360    17.5980 C.2          1 1N12000   0.0000
    20 N1           2.6150    11.1160    18.5330 N.2          1 1N12000   0.0000
    21 S            2.3360     9.7490    16.5130 S.3          1 1N12000   0.0000
    22 N2          -1.3700     9.9430    17.9040 N.am         1 1N12000   0.0000
    23 C4          -2.6680     9.6920    17.7760 C.ar         1 1N12000   0.0000
    24 C5          -3.5520    10.7710    17.7650 C.ar         1 1N12000   0.0000
    25 C6          -4.9230    10.5620    17.6400 C.ar         1 1N12000   0.0000
    26 CL          -2.9690    12.3960    17.9030 Cl           1 1N12000   0.0000
    27 O           -0.7080     9.4220    15.7740 O.2          1 1N12000   0.0000
    28 N3           6.9300     9.0350    14.5540 N.ar         1 1N12000   0.0000
    29 N4           4.8870     9.3000    15.6510 N.ar         1 1N12000   0.0000
    30 N5           8.9430    10.0650    15.3220 N.pl3        1 1N12000   0.0000
    31 C17         10.9360     8.6850    14.9010 C.3          1 1N12000   0.0000
    32 C18         10.9730    10.3540    16.7190 C.3          1 1N12000   0.0000
    33 O1          14.5610     9.7630    17.8380 O.3          1 1N12000   0.0000
    34 H1           0.6161    11.3242    19.0082 H            1 1N12000   0.0000
    35 H2          -6.4006     9.1130    17.4358 H            1 1N12000   0.0000
    36 H3          -4.8930     7.2601    17.4536 H            1 1N12000   0.0000
    37 H4          -1.2909     7.4460    17.7723 H            1 1N12000   0.0000
    38 H5          -2.4882     6.5599    18.4415 H            1 1N12000   0.0000
    39 H6          -2.3500     6.6509    16.8170 H            1 1N12000   0.0000
    40 H7           7.2541    10.9571    17.1855 H            1 1N12000   0.0000
    41 H8           3.9552     7.8188    13.8499 H            1 1N12000   0.0000
    42 H9           5.0240     8.3086    12.7166 H            1 1N12000   0.0000
    43 H10          5.3463     6.9926    13.6282 H            1 1N12000   0.0000
    44 H11         10.0445    10.0537    13.5922 H            1 1N12000   0.0000
    45 H12          9.1533     8.7019    13.8043 H            1 1N12000   0.0000
    46 H13          9.0814    11.2054    17.0126 H            1 1N12000   0.0000
    47 H14          9.8726    11.8386    15.7320 H            1 1N12000   0.0000
    48 H15         13.2463     8.3075    15.5783 H            1 1N12000   0.0000
    49 H16         12.6249     8.5413    17.0702 H            1 1N12000   0.0000
    50 H17         13.6505    10.9318    16.4918 H            1 1N12000   0.0000
    51 H18         14.7518     9.9107    15.8507 H            1 1N12000   0.0000
    52 H19          5.1787    11.0575    18.3229 H            1 1N12000   0.0000
    53 H20         -1.0392    10.2367    18.8008 H            1 1N12000   0.0000
    54 H21         -5.5502    11.3408    17.6323 H            1 1N12000   0.0000
    55 H22         10.6189     7.9836    15.5393 H            1 1N12000   0.0000
    56 H23         11.4936     8.2595    14.1883 H            1 1N12000   0.0000
    57 H24         11.5439    11.0682    17.1239 H            1 1N12000   0.0000
    58 H25         10.7512     9.6704    17.4143 H            1 1N12000   0.0000
    59 H26         15.2858    10.4251    18.0285 H            1 1N12000   0.0000
    60 H27         12.0698    10.3826    14.9859 H            1 1N12000   0.0000
@<TRIPOS>BOND
     1    1    2       2
     2    1   20       1
     3    2    3       1
     4    2   21       1
     5    3   22      am
     6    3   27       2
     7    4   16       1
     8    4   31       1
     9    4   32       1
    10    5    6      ar
    11    5   25      ar
    12    6    7      ar
    13    7    8       1
    14    7   23      ar
    15    9   10      ar
    16    9   18       1
    17    9   29      ar
    18   10   11      ar
    19   11   28      ar
    20   11   30       1
    21   12   13       1
    22   12   28      ar
    23   12   29      ar
    24   14   30       1
    25   14   31       1
    26   15   30       1
    27   15   32       1
    28   16   17       1
    29   17   33       1
    30   18   19       1
    31   19   20       2
    32   19   21       1
    33   22   23       1
    34   23   24      ar
    35   24   25      ar
    36   24   26       1
    37    1   34       1
    38    5   35       1
    39    6   36       1
    40    8   37       1
    41    8   38       1
    42    8   39       1
    43   10   40       1
    44   13   41       1
    45   13   42       1
    46   13   43       1
    47   14   44       1
    48   14   45       1
    49   15   46       1
    50   15   47       1
    51   16   48       1
    52   16   49       1
    53   17   50       1
    54   17   51       1
    55   18   52       1
    56   22   53       1
    57   25   54       1
    58   31   55       1
    59   31   56       1
    60   32   57       1
    61   32   58       1
    62   33   59       1
    63    4   60       1
@<TRIPOS>SUBSTRUCTURE
     1 1N12000     1 GROUP             4 A     1N1     0 **** 1N1 A2000
