@<TRIPOS>MOLECULE
3k7t_FAD_2_ligand
   84    89     1     0     0
SMALL
NO_CHARGES


@<TRIPOS>ATOM
     1 PA         -22.2350   113.8770    26.9840 P.3          1 FAD434   0.0000
     2 O1A        -21.3700   113.9290    28.2190 O.co2        1 FAD434   0.0000
     3 O2A        -22.9500   112.5510    26.8900 O.co2        1 FAD434  -1.0000
     4 O5B        -23.2670   115.1150    27.0070 O.3          1 FAD434   0.0000
     5 C5B        -24.6040   114.9640    26.5810 C.3          1 FAD434   0.0000
     6 C4B        -25.5580   115.0720    27.7660 C.3          1 FAD434   0.0000
     7 O4B        -26.8300   115.5040    27.3190 O.3          1 FAD434   0.0000
     8 C3B        -25.7590   113.7350    28.4650 C.3          1 FAD434   0.0000
     9 O3B        -25.4870   113.8960    29.8360 O.3          1 FAD434   0.0000
    10 C2B        -27.2220   113.3910    28.2690 C.3          1 FAD434   0.0000
    11 O2B        -27.7990   112.8750    29.4470 O.3          1 FAD434   0.0000
    12 C1B        -27.8550   114.7240    27.9040 C.3          1 FAD434   0.0000
    13 N9A        -29.0070   114.5870    26.9870 N.pl3        1 FAD434   0.0000
    14 C8A        -29.2240   113.6050    26.0540 C.2          1 FAD434   0.0000
    15 N7A        -30.3970   113.8500    25.4290 N.2          1 FAD434   0.0000
    16 C5A        -30.9350   114.9750    25.9470 C.ar         1 FAD434   0.0000
    17 C6A        -32.1080   115.6710    25.6720 C.ar         1 FAD434   0.0000
    18 N6A        -32.9430   115.2320    24.7340 N.pl3        1 FAD434   0.0000
    19 N1A        -32.4010   116.8230    26.3780 N.ar         1 FAD434   0.0000
    20 C2A        -31.5330   117.2820    27.3510 C.ar         1 FAD434   0.0000
    21 N3A        -30.3670   116.5860    27.6160 N.ar         1 FAD434   0.0000
    22 C4A        -30.0710   115.4510    26.9280 C.ar         1 FAD434   0.0000
    23 N1         -12.5700   110.3230    26.9970 N.2          1 FAD434   0.0000
    24 C2         -11.2170   110.5410    27.1830 C.2          1 FAD434   0.0000
    25 O2         -10.7200   111.6280    26.8960 O.2          1 FAD434   0.0000
    26 N3         -10.4190   109.5350    27.6940 N.pl3        1 FAD434   0.0000
    27 C4         -10.9710   108.3110    28.0200 C.2          1 FAD434   0.0000
    28 O4         -10.2530   107.4210    28.4740 O.2          1 FAD434   0.0000
    29 C4X        -12.3350   108.0880    27.8330 C.2          1 FAD434   0.0000
    30 N5         -12.8850   106.8640    28.1570 N.2          1 FAD434   0.0000
    31 C5X        -14.2340   106.6410    27.9750 C.ar         1 FAD434   0.0000
    32 C6         -14.7740   105.4000    28.3070 C.ar         1 FAD434   0.0000
    33 C7         -16.1340   105.1520    28.1320 C.ar         1 FAD434   0.0000
    34 C7M        -16.6780   103.8010    28.5050 C.3          1 FAD434   0.0000
    35 C8         -16.9580   106.1590    27.6150 C.ar         1 FAD434   0.0000
    36 C8M        -18.4310   105.9430    27.4050 C.3          1 FAD434   0.0000
    37 C9         -16.4120   107.3980    27.2840 C.ar         1 FAD434   0.0000
    38 C9A        -15.0490   107.6520    27.4610 C.ar         1 FAD434   0.0000
    39 N10        -14.5050   108.8880    27.1190 N.pl3        1 FAD434   0.0000
    40 C10        -13.1450   109.1030    27.3190 C.2          1 FAD434   0.0000
    41 C1'        -15.1630   109.6460    25.9950 C.3          1 FAD434   0.0000
    42 C2'        -15.9150   110.8830    26.4870 C.3          1 FAD434   0.0000
    43 O2'        -16.2820   110.7280    27.8420 O.3          1 FAD434   0.0000
    44 C3'        -17.1730   111.1610    25.6570 C.3          1 FAD434   0.0000
    45 O3'        -17.0070   110.7200    24.3240 O.3          1 FAD434   0.0000
    46 C4'        -17.5600   112.6410    25.6290 C.3          1 FAD434   0.0000
    47 O4'        -16.4620   113.4730    25.9500 O.3          1 FAD434   0.0000
    48 C5'        -18.7210   112.9290    26.5740 C.3          1 FAD434   0.0000
    49 O5'        -18.9670   114.3190    26.6370 O.3          1 FAD434   0.0000
    50 P          -20.0310   115.0510    25.6690 P.3          1 FAD434   0.0000
    51 O1P        -20.3850   116.4020    26.2440 O.co2        1 FAD434   0.0000
    52 O2P        -19.4760   115.1920    24.2710 O.co2        1 FAD434  -1.0000
    53 O3P        -21.3400   114.1110    25.6640 O.3          1 FAD434   0.0000
    54 H5B1       -24.7132   114.0676    26.1513 H            1 FAD434   0.0000
    55 H5B2       -24.8209   115.6802    25.9177 H            1 FAD434   0.0000
    56 H4B        -25.1961   115.7353    28.4211 H            1 FAD434   0.0000
    57 H3B        -25.1709   113.0319    28.0652 H            1 FAD434   0.0000
    58 H5         -26.1093   114.5773    30.2215 H            1 FAD434   0.0000
    59 H2B        -27.3273   112.7399    27.5174 H            1 FAD434   0.0000
    60 H7         -28.1760   113.6254    29.9899 H            1 FAD434   0.0000
    61 H1B        -28.1629   115.1740    28.7422 H            1 FAD434   0.0000
    62 H8A        -28.6145   112.8346    25.8671 H            1 FAD434   0.0000
    63 H6A1       -33.7851   115.7349    24.5391 H            1 FAD434   0.0000
    64 H6A2       -32.7286   114.3991    24.2238 H            1 FAD434   0.0000
    65 H2A        -31.7472   118.1146    27.8618 H            1 FAD434   0.0000
    66 H13         -9.4407   109.6931    27.8280 H            1 FAD434   0.0000
    67 H14        -14.1815   104.6825    28.6733 H            1 FAD434   0.0000
    68 H7M1       -17.6611   103.7759    28.3239 H            1 FAD434   0.0000
    69 H7M2       -16.2210   103.0962    27.9623 H            1 FAD434   0.0000
    70 H7M3       -16.5137   103.6322    29.4769 H            1 FAD434   0.0000
    71 H8M1       -18.8399   106.7753    27.0306 H            1 FAD434   0.0000
    72 H8M2       -18.5692   105.1869    26.7653 H            1 FAD434   0.0000
    73 H8M3       -18.8637   105.7232    28.2794 H            1 FAD434   0.0000
    74 H21        -17.0035   108.1149    26.9149 H            1 FAD434   0.0000
    75 H1'1       -15.8104   109.0389    25.5342 H            1 FAD434   0.0000
    76 H1'2       -14.4583   109.9353    25.3472 H            1 FAD434   0.0000
    77 H2'        -15.3065   111.6731    26.4128 H            1 FAD434   0.0000
    78 H25        -16.7723   111.5433    28.1499 H            1 FAD434   0.0000
    79 H3'        -17.9311   110.6493    26.0613 H            1 FAD434   0.0000
    80 H27        -17.8390   110.9118    23.8034 H            1 FAD434   0.0000
    81 H4'        -17.8555   112.8650    24.7003 H            1 FAD434   0.0000
    82 H29        -16.2743   114.0876    25.1838 H            1 FAD434   0.0000
    83 H5'1       -18.4942   112.5921    27.4878 H            1 FAD434   0.0000
    84 H5'2       -19.5410   112.4634    26.2411 H            1 FAD434   0.0000
@<TRIPOS>BOND
     1    1    2      ar
     2    1    3      ar
     3    1    4       1
     4    1   53       1
     5    4    5       1
     6    5    6       1
     7    6    7       1
     8    6    8       1
     9    7   12       1
    10    8    9       1
    11    8   10       1
    12   10   11       1
    13   10   12       1
    14   12   13       1
    15   13   14       1
    16   13   22       1
    17   14   15       2
    18   15   16       1
    19   16   17      ar
    20   16   22      ar
    21   17   18       1
    22   17   19      ar
    23   19   20      ar
    24   20   21      ar
    25   21   22      ar
    26   23   24       1
    27   23   40       2
    28   24   25       2
    29   24   26       1
    30   26   27       1
    31   27   28       2
    32   27   29       1
    33   29   30       2
    34   29   40       1
    35   30   31       1
    36   31   32      ar
    37   31   38      ar
    38   32   33      ar
    39   33   34       1
    40   33   35      ar
    41   35   36       1
    42   35   37      ar
    43   37   38      ar
    44   38   39       1
    45   39   40       1
    46   39   41       1
    47   41   42       1
    48   42   43       1
    49   42   44       1
    50   44   45       1
    51   44   46       1
    52   46   47       1
    53   46   48       1
    54   48   49       1
    55   49   50       1
    56   50   51      ar
    57   50   52      ar
    58   50   53       1
    59   48   84       1
    60    5   54       1
    61    5   55       1
    62    6   56       1
    63    8   57       1
    64    9   58       1
    65   10   59       1
    66   11   60       1
    67   12   61       1
    68   14   62       1
    69   18   63       1
    70   18   64       1
    71   20   65       1
    72   26   66       1
    73   32   67       1
    74   34   68       1
    75   34   69       1
    76   34   70       1
    77   36   71       1
    78   36   72       1
    79   36   73       1
    80   37   74       1
    81   41   75       1
    82   41   76       1
    83   42   77       1
    84   43   78       1
    85   44   79       1
    86   45   80       1
    87   46   81       1
    88   47   82       1
    89   48   83       1
@<TRIPOS>SUBSTRUCTURE
     1 FAD434      1 GROUP             4 B     FAD     0 **** FAD B 434
