@<TRIPOS>MOLECULE
4ev0_CMP_1_ligand
   34    37     1     0     0
SMALL
NO_CHARGES


@<TRIPOS>ATOM
     1 P           39.7230    42.0750    47.3610 P.3          1 CMP301   0.0000
     2 O1P         40.9270    42.6120    46.6330 O.3          1 CMP301   0.0000
     3 O2P         39.8740    41.6620    48.8190 O.2          1 CMP301   0.0000
     4 O5'         39.0620    40.8620    46.5300 O.3          1 CMP301   0.0000
     5 C5'         37.7160    40.4530    46.7830 C.3          1 CMP301   0.0000
     6 C4'         36.8570    41.6640    46.8550 C.3          1 CMP301   0.0000
     7 O4'         35.5430    41.3980    47.3780 O.3          1 CMP301   0.0000
     8 C3'         37.3600    42.7160    47.7900 C.3          1 CMP301   0.0000
     9 O3'         38.5890    43.2590    47.3470 O.3          1 CMP301   0.0000
    10 C2'         36.1770    43.6600    47.8010 C.3          1 CMP301   0.0000
    11 O2'         36.0880    44.3430    46.5620 O.3          1 CMP301   0.0000
    12 C1'         35.0240    42.6370    47.8610 C.3          1 CMP301   0.0000
    13 N9          34.5180    42.4400    49.2300 N.pl3        1 CMP301   0.0000
    14 C8          35.1790    41.8180    50.2180 C.2          1 CMP301   0.0000
    15 N7          34.4420    41.7750    51.3560 N.2          1 CMP301   0.0000
    16 C5          33.2720    42.3690    51.0990 C.ar         1 CMP301   0.0000
    17 C6          32.0490    42.6410    51.8830 C.ar         1 CMP301   0.0000
    18 N6          31.9640    42.2580    53.1880 N.pl3        1 CMP301   0.0000
    19 N1          31.0470    43.2890    51.2420 N.ar         1 CMP301   0.0000
    20 C2          31.1500    43.6670    49.9460 C.ar         1 CMP301   0.0000
    21 N3          32.2360    43.4410    49.1780 N.ar         1 CMP301   0.0000
    22 C4          33.3180    42.8060    49.6940 C.ar         1 CMP301   0.0000
    23 H1P         40.7381    43.5417    46.3168 H            1 CMP301   0.0000
    24 H5'1        37.6721    39.9570    47.6502 H            1 CMP301   0.0000
    25 H5'2        37.3997    39.8593    46.0431 H            1 CMP301   0.0000
    26 H4'         36.7699    42.0565    45.9394 H            1 CMP301   0.0000
    27 H3'         37.4796    42.3217    48.7012 H            1 CMP301   0.0000
    28 H2'         36.1847    44.2806    48.5851 H            1 CMP301   0.0000
    29 H7          36.6178    45.1898    46.6094 H            1 CMP301   0.0000
    30 H1'         34.2772    42.9400    47.2690 H            1 CMP301   0.0000
    31 H9          36.0982    41.4348    50.1271 H            1 CMP301   0.0000
    32 H10         31.1327    42.4460    53.7111 H            1 CMP301   0.0000
    33 H11         32.7329    41.7889    53.6225 H            1 CMP301   0.0000
    34 H12         30.3736    44.1428    49.5327 H            1 CMP301   0.0000
@<TRIPOS>BOND
     1    1    2       1
     2    1    3       2
     3    1    4       1
     4    1    9       1
     5    4    5       1
     6    5    6       1
     7    6    7       1
     8    6    8       1
     9    7   12       1
    10    8    9       1
    11    8   10       1
    12   10   11       1
    13   10   12       1
    14   12   13       1
    15   13   14       1
    16   13   22       1
    17   14   15       2
    18   15   16       1
    19   16   17      ar
    20   16   22      ar
    21   17   18       1
    22   17   19      ar
    23   19   20      ar
    24   20   21      ar
    25   21   22      ar
    26    2   23       1
    27    5   24       1
    28    5   25       1
    29    6   26       1
    30    8   27       1
    31   10   28       1
    32   11   29       1
    33   12   30       1
    34   14   31       1
    35   18   32       1
    36   18   33       1
    37   20   34       1
@<TRIPOS>SUBSTRUCTURE
     1 CMP301      1 GROUP             4 A     CMP     0 **** CMP A 301
