@<TRIPOS>MOLECULE
1g8j_MGD_3_ligand
   69    74     1     0     0
SMALL
NO_CHARGES


@<TRIPOS>ATOM
     1 PB          -4.2710     6.4280    36.1740 P.3          1 MGD3001   0.0000
     2 O1B         -3.2350     6.0280    37.1620 O.co2        1 MGD3001   0.0000
     3 O2B         -3.9470     6.4350    34.7380 O.co2        1 MGD3001  -1.0000
     4 O3B         -4.7900     7.8650    36.6130 O.3          1 MGD3001   0.0000
     5 O3A         -5.7540     9.9660    35.5940 O.3          1 MGD3001   0.0000
     6 PA          -6.1390     8.5010    36.0250 P.3          1 MGD3001   0.0000
     7 O1A         -6.5330     7.8000    34.7940 O.co2        1 MGD3001   0.0000
     8 O2A         -7.0940     8.6690    37.1340 O.co2        1 MGD3001  -1.0000
     9 O5'         -5.5230     5.4710    36.4200 O.3          1 MGD3001   0.0000
    10 C5'         -5.6230     4.1970    35.8310 C.3          1 MGD3001   0.0000
    11 C4'         -6.3840     3.2880    36.7620 C.3          1 MGD3001   0.0000
    12 O4'         -6.8400     2.1380    36.0240 O.3          1 MGD3001   0.0000
    13 C3'         -5.5840     2.7810    37.9520 C.3          1 MGD3001   0.0000
    14 O3'         -6.2970     2.8970    39.1760 O.3          1 MGD3001   0.0000
    15 C2'         -5.2870     1.3300    37.6080 C.3          1 MGD3001   0.0000
    16 O2'         -5.2470     0.5450    38.7830 O.3          1 MGD3001   0.0000
    17 C1'         -6.4710     0.9640    36.7070 C.3          1 MGD3001   0.0000
    18 N9          -6.1770    -0.0140    35.6720 N.pl3        1 MGD3001   0.0000
    19 C8          -4.9530    -0.3540    35.1480 C.2          1 MGD3001   0.0000
    20 N7          -5.0390    -1.2240    34.1790 N.2          1 MGD3001   0.0000
    21 C5          -6.4000    -1.4810    34.0680 C.2          1 MGD3001   0.0000
    22 C6          -7.1060    -2.3380    33.1850 C.2          1 MGD3001   0.0000
    23 O6          -6.6500    -3.0690    32.2990 O.2          1 MGD3001   0.0000
    24 N1          -8.4820    -2.2880    33.4120 N.pl3        1 MGD3001   0.0000
    25 C2          -9.0970    -1.5150    34.3690 C.2          1 MGD3001   0.0000
    26 N2         -10.4380    -1.5870    34.4330 N.pl3        1 MGD3001   0.0000
    27 N3          -8.4470    -0.7210    35.2040 N.2          1 MGD3001   0.0000
    28 C4          -7.1110    -0.7520    34.9940 C.2          1 MGD3001   0.0000
    29 C10         -4.7170    10.1970    34.6900 C.3          1 MGD3001   0.0000
    30 C11         -4.7210    11.6310    34.2900 C.3          1 MGD3001   0.0000
    31 O11         -4.4350    12.4920    35.3880 O.3          1 MGD3001   0.0000
    32 C12         -3.7990    11.8940    33.1150 C.2          1 MGD3001   0.0000
    33 S12         -3.3520    10.6880    31.9240 S.2          1 MGD3001   0.0000
    34 C13         -3.2930    13.1670    32.9390 C.2          1 MGD3001   0.0000
    35 S13         -2.2940    13.3780    31.5170 S.2          1 MGD3001   0.0000
    36 C14         -3.6170    14.3320    33.9080 C.3          1 MGD3001   0.0000
    37 N15         -2.2860    14.7330    34.3720 N.pl3        1 MGD3001   0.0000
    38 C16         -2.2800    15.6410    35.4140 C.2          1 MGD3001   0.0000
    39 C17         -1.1950    16.6180    35.5910 C.2          1 MGD3001   0.0000
    40 O17         -0.3220    16.8090    34.7500 O.2          1 MGD3001   0.0000
    41 N18         -1.2310    17.4580    36.7130 N.pl3        1 MGD3001   0.0000
    42 C19         -2.2700    17.3710    37.6410 C.2          1 MGD3001   0.0000
    43 N19         -2.2010    18.1880    38.6950 N.pl3        1 MGD3001   0.0000
    44 N20         -3.2780    16.4590    37.4680 N.2          1 MGD3001   0.0000
    45 C21         -3.3130    15.5940    36.3830 C.2          1 MGD3001   0.0000
    46 N22         -4.3430    14.6750    36.3010 N.pl3        1 MGD3001   0.0000
    47 C23         -4.5690    13.8870    35.0630 C.3          1 MGD3001   0.0000
    48 H5'1        -4.7074     3.8267    35.6742 H            1 MGD3001   0.0000
    49 H5'2        -6.1080     4.2672    34.9593 H            1 MGD3001   0.0000
    50 H4'         -7.1831     3.7821    37.1045 H            1 MGD3001   0.0000
    51 H3'         -4.7257     3.2900    38.0172 H            1 MGD3001   0.0000
    52 H5          -6.0087     2.1706    39.7998 H            1 MGD3001   0.0000
    53 H2'         -4.4257     1.2562    37.1054 H            1 MGD3001   0.0000
    54 H7          -6.1614     0.1902    38.9782 H            1 MGD3001   0.0000
    55 H1'         -7.2355     0.6442    37.2668 H            1 MGD3001   0.0000
    56 H9          -4.0874     0.0253    35.4748 H            1 MGD3001   0.0000
    57 H10         -9.0660    -2.8582    32.8342 H            1 MGD3001   0.0000
    58 H11        -10.9360    -1.0457    35.1105 H            1 MGD3001   0.0000
    59 H12        -10.9374    -2.1818    33.8031 H            1 MGD3001   0.0000
    60 H13         -4.8462     9.6243    33.8805 H            1 MGD3001   0.0000
    61 H14         -3.8427     9.9731    35.1207 H            1 MGD3001   0.0000
    62 H15         -5.6490    11.8458    33.9856 H            1 MGD3001   0.0000
    63 H16         -4.0356    15.0845    33.3995 H            1 MGD3001   0.0000
    64 H17         -1.4450    14.3763    33.9651 H            1 MGD3001   0.0000
    65 H18         -0.5022    18.1288    36.8503 H            1 MGD3001   0.0000
    66 H19         -2.9187    18.1679    39.3910 H            1 MGD3001   0.0000
    67 H20         -1.4316    18.8199    38.7883 H            1 MGD3001   0.0000
    68 H21         -4.9451    14.5390    37.0878 H            1 MGD3001   0.0000
    69 H22         -5.5103    14.0449    34.7647 H            1 MGD3001   0.0000
@<TRIPOS>BOND
     1    1    2      ar
     2    1    3      ar
     3    1    4       1
     4    1    9       1
     5    4    6       1
     6    5    6       1
     7    5   29       1
     8    6    7      ar
     9    6    8      ar
    10    9   10       1
    11   10   11       1
    12   11   12       1
    13   11   13       1
    14   12   17       1
    15   13   14       1
    16   13   15       1
    17   15   16       1
    18   15   17       1
    19   17   18       1
    20   18   19       1
    21   18   28       1
    22   19   20       2
    23   20   21       1
    24   21   22       1
    25   21   28       2
    26   22   23       2
    27   22   24       1
    28   24   25       1
    29   25   26       1
    30   25   27       2
    31   27   28       1
    32   29   30       1
    33   30   31       1
    34   30   32       1
    35   31   47       1
    36   32   33       2
    37   32   34       1
    38   34   35       2
    39   34   36       1
    40   36   37       1
    41   36   47       1
    42   37   38       1
    43   38   39       1
    44   38   45       2
    45   39   40       2
    46   39   41       1
    47   41   42       1
    48   42   43       1
    49   42   44       2
    50   44   45       1
    51   45   46       1
    52   46   47       1
    53   47   69       1
    54   46   68       1
    55   10   48       1
    56   10   49       1
    57   11   50       1
    58   13   51       1
    59   14   52       1
    60   15   53       1
    61   16   54       1
    62   17   55       1
    63   19   56       1
    64   24   57       1
    65   26   58       1
    66   26   59       1
    67   29   60       1
    68   29   61       1
    69   30   62       1
    70   36   63       1
    71   37   64       1
    72   41   65       1
    73   43   66       1
    74   43   67       1
@<TRIPOS>SUBSTRUCTURE
     1 MGD3001     1 GROUP             4 C     MGD     0 **** MGD C3001
