@<TRIPOS>MOLECULE
3lcc_SAH_1_ligand
   46    48     1     0     0
SMALL
NO_CHARGES


@<TRIPOS>ATOM
     1 N           -5.9160    23.7520     9.7850 N.4          1 SAH300   1.0000
     2 CA          -6.4640    24.7180     8.7940 C.3          1 SAH300   0.0000
     3 CB          -5.6190    26.0040     8.7470 C.3          1 SAH300   0.0000
     4 CG          -4.1230    25.7350     8.6580 C.3          1 SAH300   0.0000
     5 SD          -3.1480    27.2290     8.6530 S.3          1 SAH300   0.0000
     6 C           -6.5130    24.0380     7.4550 C.2          1 SAH300   0.0000
     7 O           -6.1320    22.8570     7.3100 O.co2        1 SAH300   0.0000
     8 OXT         -6.9640    24.6480     6.4830 O.co2        1 SAH300  -1.0000
     9 C5'         -2.7770    27.4600    10.3740 C.3          1 SAH300   0.0000
    10 C4'         -3.8170    28.2240    11.1970 C.3          1 SAH300   0.0000
    11 O4'         -3.3820    28.2110    12.5740 O.3          1 SAH300   0.0000
    12 C3'         -4.0050    29.6930    10.8110 C.3          1 SAH300   0.0000
    13 O3'         -5.3820    29.9190    10.4550 O.3          1 SAH300   0.0000
    14 C2'         -3.5430    30.4740    12.0360 C.3          1 SAH300   0.0000
    15 O2'         -4.2710    31.6680    12.3280 O.3          1 SAH300   0.0000
    16 C1'         -3.7750    29.4670    13.1470 C.3          1 SAH300   0.0000
    17 N9          -2.9750    29.6130    14.3640 N.pl3        1 SAH300   0.0000
    18 C8          -1.6420    29.8520    14.4530 C.2          1 SAH300   0.0000
    19 N7          -1.2540    29.8430    15.7570 N.2          1 SAH300   0.0000
    20 C5          -2.3590    29.5670    16.4940 C.ar         1 SAH300   0.0000
    21 C6          -2.6890    29.3870    17.9260 C.ar         1 SAH300   0.0000
    22 N6          -1.7350    29.5240    18.8700 N.pl3        1 SAH300   0.0000
    23 N1          -3.9580    29.1040    18.2650 N.ar         1 SAH300   0.0000
    24 C2          -4.9310    28.9640    17.3590 C.ar         1 SAH300   0.0000
    25 N3          -4.7080    29.1140    16.0400 N.ar         1 SAH300   0.0000
    26 C4          -3.4740    29.3990    15.5640 C.ar         1 SAH300   0.0000
    27 H1          -6.4821    22.9278     9.7953 H            1 SAH300   0.0000
    28 H2          -4.9794    23.5099     9.5318 H            1 SAH300   0.0000
    29 HA          -7.3963    24.9583     9.0643 H            1 SAH300   0.0000
    30 HB1         -5.7982    26.5327     9.5767 H            1 SAH300   0.0000
    31 HB2         -5.8945    26.5364     7.9466 H            1 SAH300   0.0000
    32 HG1         -3.9391    25.2311     7.8140 H            1 SAH300   0.0000
    33 HG2         -3.8514    25.1794     9.4438 H            1 SAH300   0.0000
    34 H5'1        -1.9134    27.9605    10.4347 H            1 SAH300   0.0000
    35 H5'2        -2.6677    26.5554    10.7859 H            1 SAH300   0.0000
    36 H4'         -4.6968    27.7536    11.1284 H            1 SAH300   0.0000
    37 H3'         -3.4173    29.9127    10.0323 H            1 SAH300   0.0000
    38 H12         -5.9682    29.7002    11.2351 H            1 SAH300   0.0000
    39 H2'         -2.5673    30.6797    11.9609 H            1 SAH300   0.0000
    40 H14         -5.2317    31.4417    12.4889 H            1 SAH300   0.0000
    41 H1'         -4.7466    29.4416    13.3824 H            1 SAH300   0.0000
    42 H16         -1.0345    30.0112    13.6748 H            1 SAH300   0.0000
    43 H17         -1.9654    29.4009    19.8353 H            1 SAH300   0.0000
    44 H18         -0.7974    29.7486    18.6045 H            1 SAH300   0.0000
    45 H19         -5.8544    28.7406    17.6713 H            1 SAH300   0.0000
    46 H20         -5.9183    24.1693    10.6937 H            1 SAH300   0.0000
@<TRIPOS>BOND
     1    1    2       1
     2    2    3       1
     3    2    6       1
     4    3    4       1
     5    4    5       1
     6    5    9       1
     7    6    7      ar
     8    6    8      ar
     9    9   10       1
    10   10   11       1
    11   10   12       1
    12   11   16       1
    13   12   13       1
    14   12   14       1
    15   14   15       1
    16   14   16       1
    17   16   17       1
    18   17   18       1
    19   17   26       1
    20   18   19       2
    21   19   20       1
    22   20   21      ar
    23   20   26      ar
    24   21   22       1
    25   21   23      ar
    26   23   24      ar
    27   24   25      ar
    28   25   26      ar
    29    1   27       1
    30    1   28       1
    31    2   29       1
    32    3   30       1
    33    3   31       1
    34    4   32       1
    35    4   33       1
    36    1   46       1
    37    9   34       1
    38    9   35       1
    39   10   36       1
    40   12   37       1
    41   13   38       1
    42   14   39       1
    43   15   40       1
    44   16   41       1
    45   18   42       1
    46   22   43       1
    47   22   44       1
    48   24   45       1
@<TRIPOS>SUBSTRUCTURE
     1 SAH300      1 GROUP             4 A     SAH     0 **** SAH A 300
