@<TRIPOS>MOLECULE
2egv_SAM_2_ligand
   50    52     1     0     0
SMALL
NO_CHARGES


@<TRIPOS>ATOM
     1 N           56.8030    -6.6270    14.0370 N.4          1 SAM1400   1.0000
     2 CA          55.8480    -5.8100    14.7990 C.3          1 SAM1400   0.0000
     3 C           56.2260    -4.3350    14.6530 C.2          1 SAM1400   0.0000
     4 O           55.4140    -3.6000    14.0500 O.co2        1 SAM1400   0.0000
     5 OXT         57.3180    -3.9770    15.1460 O.co2        1 SAM1400  -1.0000
     6 CB          55.9070    -6.2100    16.2740 C.3          1 SAM1400   0.0000
     7 CG          55.3660    -7.6250    16.4890 C.3          1 SAM1400   0.0000
     8 SD          53.5720    -7.7900    16.1670 S.3          1 SAM1400   1.0000
     9 CE          53.0640    -6.0840    16.2270 C.3          1 SAM1400   0.0000
    10 C5'         52.7440    -8.4430    17.6620 C.3          1 SAM1400   0.0000
    11 C4'         52.2610    -9.8880    17.5200 C.3          1 SAM1400   0.0000
    12 O4'         51.2080    -9.9970    16.5490 O.3          1 SAM1400   0.0000
    13 C3'         53.3710   -10.8100    17.0170 C.3          1 SAM1400   0.0000
    14 O3'         54.1650   -11.2270    18.1320 O.3          1 SAM1400   0.0000
    15 C2'         52.5270   -11.9790    16.5130 C.3          1 SAM1400   0.0000
    16 O2'         52.0510   -12.7850    17.5940 O.3          1 SAM1400   0.0000
    17 C1'         51.3460   -11.2540    15.8630 C.3          1 SAM1400   0.0000
    18 N9          51.5920   -10.9350    14.4390 N.pl3        1 SAM1400   0.0000
    19 C8          51.6120    -9.7170    13.9020 C.2          1 SAM1400   0.0000
    20 N7          51.7390    -9.8140    12.5800 N.2          1 SAM1400   0.0000
    21 C5          51.8060   -11.1060    12.2700 C.ar         1 SAM1400   0.0000
    22 C6          51.9230   -11.8140    11.0810 C.ar         1 SAM1400   0.0000
    23 N6          51.9620   -11.1810     9.9120 N.pl3        1 SAM1400   0.0000
    24 N1          51.9620   -13.1530    11.1280 N.ar         1 SAM1400   0.0000
    25 C2          51.8860   -13.8000    12.2780 C.ar         1 SAM1400   0.0000
    26 N3          51.7660   -13.1600    13.4280 N.ar         1 SAM1400   0.0000
    27 C4          51.7230   -11.8210    13.4570 C.ar         1 SAM1400   0.0000
    28 H1          57.5711    -6.8782    14.6260 H            1 SAM1400   0.0000
    29 H2          56.3475    -7.4557    13.7117 H            1 SAM1400   0.0000
    30 HA          54.9236    -5.9570    14.4471 H            1 SAM1400   0.0000
    31 HB1         55.3581    -5.5669    16.8080 H            1 SAM1400   0.0000
    32 HB2         56.8573    -6.1742    16.5834 H            1 SAM1400   0.0000
    33 HG1         55.5411    -7.8882    17.4377 H            1 SAM1400   0.0000
    34 HG2         55.8544    -8.2454    15.8753 H            1 SAM1400   0.0000
    35 HE1         52.0793    -6.0234    16.0633 H            1 SAM1400   0.0000
    36 HE2         53.2762    -5.7045    17.1275 H            1 SAM1400   0.0000
    37 HE3         53.5513    -5.5662    15.5238 H            1 SAM1400   0.0000
    38 H5'1        51.9532    -7.8646    17.8623 H            1 SAM1400   0.0000
    39 H5'2        53.3900    -8.4001    18.4242 H            1 SAM1400   0.0000
    40 H4'         51.9319   -10.2167    18.4052 H            1 SAM1400   0.0000
    41 H3'         53.9180   -10.3914    16.2920 H            1 SAM1400   0.0000
    42 H15         55.1041   -11.3907    17.8298 H            1 SAM1400   0.0000
    43 H2'         53.0289   -12.5277    15.8444 H            1 SAM1400   0.0000
    44 H17         52.3926   -13.7190    17.4890 H            1 SAM1400   0.0000
    45 H1'         50.5107   -11.7955    15.9585 H            1 SAM1400   0.0000
    46 H19         51.5423    -8.8603    14.4132 H            1 SAM1400   0.0000
    47 H20         52.0465   -11.7031     9.0633 H            1 SAM1400   0.0000
    48 H21         51.9069   -10.1830     9.8817 H            1 SAM1400   0.0000
    49 H22         51.9202   -14.7994    12.2779 H            1 SAM1400   0.0000
    50 H23         57.1402    -6.1030    13.2549 H            1 SAM1400   0.0000
@<TRIPOS>BOND
     1    1    2       1
     2    2    3       1
     3    2    6       1
     4    3    4      ar
     5    3    5      ar
     6    6    7       1
     7    7    8       1
     8    8    9       1
     9    8   10       1
    10   10   11       1
    11   11   12       1
    12   11   13       1
    13   12   17       1
    14   13   14       1
    15   13   15       1
    16   15   16       1
    17   15   17       1
    18   17   18       1
    19   18   19       1
    20   18   27       1
    21   19   20       2
    22   20   21       1
    23   21   22      ar
    24   21   27      ar
    25   22   23       1
    26   22   24      ar
    27   24   25      ar
    28   25   26      ar
    29   26   27      ar
    30    1   28       1
    31    1   29       1
    32    2   30       1
    33    1   50       1
    34    6   31       1
    35    6   32       1
    36    7   33       1
    37    7   34       1
    38    9   35       1
    39    9   36       1
    40    9   37       1
    41   10   38       1
    42   10   39       1
    43   11   40       1
    44   13   41       1
    45   14   42       1
    46   15   43       1
    47   16   44       1
    48   17   45       1
    49   19   46       1
    50   23   47       1
    51   23   48       1
    52   25   49       1
@<TRIPOS>SUBSTRUCTURE
     1 SAM1400     1 GROUP             4 B     SAM     0 **** SAM B1400
