@<TRIPOS>MOLECULE
2fmb_LP1_1_ligand
  116   119     1     0     0
SMALL
NO_CHARGES


@<TRIPOS>ATOM
     1 C1           7.6740    20.7100     7.1540 C.3          1 LP1201   0.0000
     2 C2           6.8630    20.9860     5.8950 C.2          1 LP1201   0.0000
     3 C7           7.4980    20.2880     2.0530 C.ar         1 LP1201   0.0000
     4 C8           7.5410    21.6300     2.3680 C.ar         1 LP1201   0.0000
     5 C9           8.5120    22.4580     1.8120 C.ar         1 LP1201   0.0000
     6 C10          9.4590    21.9500     0.9340 C.ar         1 LP1201   0.0000
     7 C11          8.4410    19.7460     1.1820 C.ar         1 LP1201   0.0000
     8 C12          9.4340    20.5790     0.6100 C.ar         1 LP1201   0.0000
     9 C13          8.4410    18.3820     0.8770 C.ar         1 LP1201   0.0000
    10 C14         10.4010    20.0330    -0.2460 C.ar         1 LP1201   0.0000
    11 C15          9.3720    17.8780     0.0070 C.ar         1 LP1201   0.0000
    12 C16         10.3280    18.6960    -0.5390 C.ar         1 LP1201   0.0000
    13 C20          2.1690    19.1550     3.4580 C.3          1 LP1201   0.0000
    14 C21          1.7000    19.4670     2.0310 C.2          1 LP1201   0.0000
    15 C24         -0.2240    19.0020     4.1950 C.3          1 LP1201   0.0000
    16 N26          1.7060    18.4370     1.2140 N.am         1 LP1201   0.0000
    17 C27          1.3280    18.3930    -0.1660 C.3          1 LP1201   0.0000
    18 C30          5.1070    18.3560    -0.9570 C.3          1 LP1201   0.0000
    19 C31          3.5670    20.3300    -1.1350 C.3          1 LP1201   0.0000
    20 C32          0.0550    17.5280    -0.4860 C.3          1 LP1201   0.0000
    21 C33         -1.2610    18.2920    -0.2810 C.3          1 LP1201   0.0000
    22 C35         -1.5450    19.3980    -1.3020 C.2          1 LP1201   0.0000
    23 O3           6.4560    22.1180     5.5970 O.2          1 LP1201   0.0000
    24 N4           6.6140    19.8950     5.1700 N.am         1 LP1201   0.0000
    25 C5           5.8180    20.0250     3.9420 C.3          1 LP1201   0.0000
    26 C6           6.4750    19.4050     2.6940 C.3          1 LP1201   0.0000
    27 C17          4.5450    19.1670     4.0620 C.2          1 LP1201   0.0000
    28 O18          4.6510    18.0270     4.4700 O.2          1 LP1201   0.0000
    29 N19          3.4730    19.7140     3.5870 N.am         1 LP1201   0.0000
    30 O22          1.3100    20.5710     1.6550 O.2          1 LP1201   0.0000
    31 C23          1.1300    19.6040     4.5190 C.3          1 LP1201   0.0000
    32 C25          1.4670    18.9830     5.8690 C.3          1 LP1201   0.0000
    33 C28          2.6030    18.0320    -0.9850 C.3          1 LP1201   0.0000
    34 C29          3.8110    18.9590    -0.5770 C.3          1 LP1201   0.0000
    35 O34          0.0010    16.3610     0.3430 O.3          1 LP1201   0.0000
    36 O36         -1.0760    20.5510    -1.3100 O.2          1 LP1201   0.0000
    37 N37         -2.3620    18.9460    -2.2470 N.am         1 LP1201   0.0000
    38 C38         -2.7650    19.6980    -3.4180 C.3          1 LP1201   0.0000
    39 C39         -1.7690    19.3530    -4.5450 C.3          1 LP1201   0.0000
    40 C40         -1.8700    20.1130    -5.8400 C.3          1 LP1201   0.0000
    41 C41         -4.1710    19.3160    -3.8450 C.2          1 LP1201   0.0000
    42 O42         -4.4650    18.1050    -3.8900 O.2          1 LP1201   0.0000
    43 N43         -5.0460    20.3030    -4.0920 N.am         1 LP1201   0.0000
    44 C44         -6.4140    20.0280    -4.4820 C.3          1 LP1201   0.0000
    45 C45         -7.4860    20.2000    -3.3810 C.3          1 LP1201   0.0000
    46 C46         -7.0710    21.2250    -2.3290 C.ar         1 LP1201   0.0000
    47 C47         -7.4750    22.5490    -2.4530 C.ar         1 LP1201   0.0000
    48 C48         -7.0850    23.5130    -1.5120 C.ar         1 LP1201   0.0000
    49 C49         -6.2670    23.1690    -0.4570 C.ar         1 LP1201   0.0000
    50 C50         -6.2350    20.8740    -1.2640 C.ar         1 LP1201   0.0000
    51 C51         -5.8260    21.8510    -0.3030 C.ar         1 LP1201   0.0000
    52 C52         -5.7880    19.5500    -1.1290 C.ar         1 LP1201   0.0000
    53 C53         -4.9800    21.4850     0.7510 C.ar         1 LP1201   0.0000
    54 C54         -4.9460    19.2110    -0.0810 C.ar         1 LP1201   0.0000
    55 C55         -4.5540    20.1660     0.8340 C.ar         1 LP1201   0.0000
    56 C56         -6.8080    20.6910    -5.7930 C.2          1 LP1201   0.0000
    57 O57         -6.3140    21.7790    -6.1360 O.2          1 LP1201   0.0000
    58 N58         -7.7080    20.1110    -6.5590 N.am         1 LP1201   0.0000
    59 H1           7.8977    19.7364     7.1997 H            1 LP1201   0.0000
    60 H2           8.5184    21.2453     7.1306 H            1 LP1201   0.0000
    61 H3           7.1385    20.9671     7.9585 H            1 LP1201   0.0000
    62 H4           6.8683    22.0118     3.0018 H            1 LP1201   0.0000
    63 H5           8.5273    23.4297     2.0479 H            1 LP1201   0.0000
    64 H6          10.1520    22.5507     0.5354 H            1 LP1201   0.0000
    65 H7           7.7633    17.7754     1.2926 H            1 LP1201   0.0000
    66 H8          11.1251    20.6041    -0.6327 H            1 LP1201   0.0000
    67 H9           9.3543    16.9070    -0.2315 H            1 LP1201   0.0000
    68 H10         10.9947    18.3035    -1.1726 H            1 LP1201   0.0000
    69 H11          2.2611    18.1620     3.5317 H            1 LP1201   0.0000
    70 H12         -0.8910    19.2934     4.8807 H            1 LP1201   0.0000
    71 H13         -0.5186    19.3113     3.2908 H            1 LP1201   0.0000
    72 H14         -0.1550    18.0044     4.1999 H            1 LP1201   0.0000
    73 H15          2.0149    17.5714     1.6080 H            1 LP1201   0.0000
    74 H16          1.0944    19.3320    -0.4184 H            1 LP1201   0.0000
    75 H17          5.1862    17.4486    -0.5444 H            1 LP1201   0.0000
    76 H18          5.1579    18.2751    -1.9524 H            1 LP1201   0.0000
    77 H19          5.8531    18.9366    -0.6311 H            1 LP1201   0.0000
    78 H20          2.6736    20.6598    -0.8301 H            1 LP1201   0.0000
    79 H21          4.2800    20.9528    -0.8128 H            1 LP1201   0.0000
    80 H22          3.5848    20.2913    -2.1341 H            1 LP1201   0.0000
    81 H23          0.1044    17.2349    -1.4408 H            1 LP1201   0.0000
    82 H24         -1.2370    18.7095     0.6273 H            1 LP1201   0.0000
    83 H25         -2.0109    17.6319    -0.3247 H            1 LP1201   0.0000
    84 H26          6.9633    19.0031     5.4573 H            1 LP1201   0.0000
    85 H27          5.5821    20.9825     3.7759 H            1 LP1201   0.0000
    86 H28          6.9192    18.5502     2.9625 H            1 LP1201   0.0000
    87 H29          5.7591    19.2122     2.0229 H            1 LP1201   0.0000
    88 H30          3.5733    20.6562     3.2673 H            1 LP1201   0.0000
    89 H31          1.0797    20.6009     4.5796 H            1 LP1201   0.0000
    90 H32          0.7940    19.2761     6.5481 H            1 LP1201   0.0000
    91 H33          1.4495    17.9862     5.7911 H            1 LP1201   0.0000
    92 H34          2.3787    19.2791     6.1539 H            1 LP1201   0.0000
    93 H35          2.4119    18.1522    -1.9592 H            1 LP1201   0.0000
    94 H36          2.8471    17.0785    -0.8084 H            1 LP1201   0.0000
    95 H37          3.8012    19.0380     0.4198 H            1 LP1201   0.0000
    96 H38         -0.5012    16.5710     1.1819 H            1 LP1201   0.0000
    97 H39         -2.7250    18.0201    -2.1426 H            1 LP1201   0.0000
    98 H40         -2.7261    20.6775    -3.2206 H            1 LP1201   0.0000
    99 H41         -1.8884    18.3837    -4.7599 H            1 LP1201   0.0000
   100 H42         -0.8487    19.5034    -4.1838 H            1 LP1201   0.0000
   101 H43         -1.1681    19.7871    -6.4734 H            1 LP1201   0.0000
   102 H44         -2.7744    19.9686    -6.2416 H            1 LP1201   0.0000
   103 H45         -1.7347    21.0883    -5.6655 H            1 LP1201   0.0000
   104 H46         -4.7461    21.2529    -4.0046 H            1 LP1201   0.0000
   105 H47         -6.4223    19.0491    -4.6862 H            1 LP1201   0.0000
   106 H48         -7.6313    19.3183    -2.9321 H            1 LP1201   0.0000
   107 H49         -8.3391    20.5021    -3.8063 H            1 LP1201   0.0000
   108 H50         -8.0520    22.8181    -3.2242 H            1 LP1201   0.0000
   109 H51         -7.4025    24.4565    -1.6070 H            1 LP1201   0.0000
   110 H52         -5.9872    23.8667     0.2025 H            1 LP1201   0.0000
   111 H53         -6.0760    18.8538    -1.7865 H            1 LP1201   0.0000
   112 H54         -4.6887    22.1593     1.4296 H            1 LP1201   0.0000
   113 H55         -4.6213    18.2698     0.0120 H            1 LP1201   0.0000
   114 H56         -3.9440    19.9001     1.5804 H            1 LP1201   0.0000
   115 H57         -7.9769    20.5353    -7.4237 H            1 LP1201   0.0000
   116 H58         -8.1228    19.2461    -6.2762 H            1 LP1201   0.0000
@<TRIPOS>BOND
     1    1    2       1
     2    2   23       2
     3    2   24      am
     4    3    4      ar
     5    3    7      ar
     6    3   26       1
     7    4    5      ar
     8    5    6      ar
     9    6    8      ar
    10    7    8      ar
    11    7    9      ar
    12    8   10      ar
    13    9   11      ar
    14   10   12      ar
    15   11   12      ar
    16   13   14       1
    17   13   29       1
    18   13   31       1
    19   14   16      am
    20   14   30       2
    21   15   31       1
    22   16   17       1
    23   17   20       1
    24   17   33       1
    25   18   34       1
    26   19   34       1
    27   20   21       1
    28   20   35       1
    29   21   22       1
    30   22   36       2
    31   22   37      am
    32   24   25       1
    33   25   26       1
    34   25   27       1
    35   27   28       2
    36   27   29      am
    37   31   32       1
    38   33   34       1
    39   37   38       1
    40   38   39       1
    41   38   41       1
    42   39   40       1
    43   41   42       2
    44   41   43      am
    45   43   44       1
    46   44   45       1
    47   44   56       1
    48   45   46       1
    49   46   47      ar
    50   46   50      ar
    51   47   48      ar
    52   48   49      ar
    53   49   51      ar
    54   50   51      ar
    55   50   52      ar
    56   51   53      ar
    57   52   54      ar
    58   53   55      ar
    59   54   55      ar
    60   56   57       2
    61   56   58      am
    62    1   59       1
    63    1   60       1
    64    1   61       1
    65    4   62       1
    66    5   63       1
    67    6   64       1
    68    9   65       1
    69   10   66       1
    70   11   67       1
    71   12   68       1
    72   13   69       1
    73   15   70       1
    74   15   71       1
    75   15   72       1
    76   16   73       1
    77   17   74       1
    78   18   75       1
    79   18   76       1
    80   18   77       1
    81   19   78       1
    82   19   79       1
    83   19   80       1
    84   20   81       1
    85   21   82       1
    86   21   83       1
    87   24   84       1
    88   25   85       1
    89   26   86       1
    90   26   87       1
    91   29   88       1
    92   31   89       1
    93   32   90       1
    94   32   91       1
    95   32   92       1
    96   33   93       1
    97   33   94       1
    98   34   95       1
    99   35   96       1
   100   37   97       1
   101   38   98       1
   102   39   99       1
   103   39  100       1
   104   40  101       1
   105   40  102       1
   106   40  103       1
   107   43  104       1
   108   44  105       1
   109   45  106       1
   110   45  107       1
   111   47  108       1
   112   48  109       1
   113   49  110       1
   114   52  111       1
   115   53  112       1
   116   54  113       1
   117   55  114       1
   118   58  115       1
   119   58  116       1
@<TRIPOS>SUBSTRUCTURE
     1 LP1201      1 GROUP             4 A     LP1     0 **** LP1 A 201
