@<TRIPOS>MOLECULE
1c70_L75_1_ligand
   98   103     1     0     0
SMALL
NO_CHARGES


@<TRIPOS>ATOM
     1 N1           9.2130    23.9200     2.6960 N.4          1 L75423   1.0000
     2 C1           9.2320    23.8990     4.1620 C.3          1 L75423   0.0000
     3 C2          10.3950    24.7820     4.6440 C.3          1 L75423   0.0000
     4 C3          10.3890    24.8560     6.1620 C.2          1 L75423   0.0000
     5 O1          10.7510    23.8540     6.8230 O.2          1 L75423   0.0000
     6 N2          10.0480    26.0520     6.6740 N.am         1 L75423   0.0000
     7 C4          10.0400    26.3380     8.1330 C.3          1 L75423   0.0000
     8 C5           9.5350    27.7760     8.3410 C.3          1 L75423   0.0000
     9 C6          11.4640    26.2560     8.6960 C.3          1 L75423   0.0000
    10 C7           9.0790    25.3510     8.8630 C.3          1 L75423   0.0000
    11 N3          11.6710    24.2400     4.1300 N.4          1 L75423   1.0000
    12 C8          11.6610    24.1760     2.6430 C.3          1 L75423   0.0000
    13 C9          10.4460    23.3390     2.1640 C.3          1 L75423   0.0000
    14 C10         12.7950    25.0880     4.5620 C.3          1 L75423   0.0000
    15 C11         13.9980    24.2240     4.8280 C.3          1 L75423   0.0000
    16 O2          15.1190    24.9000     4.3380 O.3          1 L75423   0.0000
    17 C12         14.2440    23.9660     6.2840 C.3          1 L75423   0.0000
    18 C13         15.4490    23.1300     6.7380 C.3          1 L75423   0.0000
    19 C14         15.5560    23.1740     8.2650 C.3          1 L75423   0.0000
    20 C15         16.5840    22.1750     8.8200 C.ar         1 L75423   0.0000
    21 C16         17.9720    22.3160     8.5250 C.ar         1 L75423   0.0000
    22 C17         18.8750    21.4040     9.0630 C.ar         1 L75423   0.0000
    23 C18         18.4030    20.3540     9.8720 C.ar         1 L75423   0.0000
    24 C19         17.0430    20.1910    10.1550 C.ar         1 L75423   0.0000
    25 C20         16.1260    21.1030     9.6350 C.ar         1 L75423   0.0000
    26 C21         15.3170    21.6910     6.2250 C.2          1 L75423   0.0000
    27 O3          14.2920    21.0510     6.4710 O.2          1 L75423   0.0000
    28 N4          16.3950    21.2200     5.5770 N.am         1 L75423   0.0000
    29 C22         16.5420    19.7620     5.4030 C.3          1 L75423   0.0000
    30 C23         17.9850    19.3260     5.8830 C.3          1 L75423   0.0000
    31 O4          18.9080    20.2670     5.3540 O.3          1 L75423   0.0000
    32 C24         18.1730    18.0050     5.0670 C.3          1 L75423   0.0000
    33 C25         17.3740    18.2930     3.8190 C.ar         1 L75423   0.0000
    34 C26         17.6360    17.7740     2.5530 C.ar         1 L75423   0.0000
    35 C27         16.9120    18.2950     1.4880 C.ar         1 L75423   0.0000
    36 C28         15.9700    19.3330     1.7130 C.ar         1 L75423   0.0000
    37 C29         15.7440    19.8340     2.9960 C.ar         1 L75423   0.0000
    38 C30         16.5100    19.3110     4.0150 C.ar         1 L75423   0.0000
    39 C31          8.0010    23.2110     2.1710 C.3          1 L75423   0.0000
    40 C32          8.9420    17.2010     2.1820 C.ar         1 L75423   0.0000
    41 C33          9.5700    18.4780     1.9380 C.ar         1 L75423   0.0000
    42 C34          8.7650    19.6210     2.1370 C.ar         1 L75423   0.0000
    43 C35          7.4530    19.5700     2.5920 C.ar         1 L75423   0.0000
    44 C36          6.7990    18.3310     2.7810 C.ar         1 L75423   0.0000
    45 C37          7.5540    17.1370     2.5700 C.ar         1 L75423   0.0000
    46 O5           9.1560    20.8990     1.9530 O.2          1 L75423   0.0000
    47 C38          8.0760    21.6860     2.3730 C.2          1 L75423   0.0000
    48 C39          6.9360    20.8970     2.8340 C.2          1 L75423   0.0000
    49 H1           9.3631    22.9617     4.4848 H            1 L75423   0.0000
    50 H2           8.3676    24.2557     4.5163 H            1 L75423   0.0000
    51 H3          10.2690    25.7042     4.2785 H            1 L75423   0.0000
    52 H4           9.7876    26.7834     6.0437 H            1 L75423   0.0000
    53 H5           9.5227    27.9869     9.3184 H            1 L75423   0.0000
    54 H6          10.1436    28.4145     7.8699 H            1 L75423   0.0000
    55 H7           8.6104    27.8615     7.9699 H            1 L75423   0.0000
    56 H8          11.4463    26.4499     9.6769 H            1 L75423   0.0000
    57 H9          11.8301    25.3379     8.5443 H            1 L75423   0.0000
    58 H10         12.0442    26.9267     8.2340 H            1 L75423   0.0000
    59 H11          9.0790    25.5494     9.8431 H            1 L75423   0.0000
    60 H12          8.1530    25.4584     8.5011 H            1 L75423   0.0000
    61 H13          9.3886    24.4121     8.7130 H            1 L75423   0.0000
    62 H14         12.5063    23.7482     2.3230 H            1 L75423   0.0000
    63 H15         11.5944    25.1018     2.2709 H            1 L75423   0.0000
    64 H16         10.4120    23.3426     1.1646 H            1 L75423   0.0000
    65 H17         10.5394    22.3986     2.4909 H            1 L75423   0.0000
    66 H18         12.5431    25.5759     5.3977 H            1 L75423   0.0000
    67 H19         13.0107    25.7483     3.8427 H            1 L75423   0.0000
    68 H20         13.8966    23.3531     4.3470 H            1 L75423   0.0000
    69 H21         15.0115    25.0558     3.3561 H            1 L75423   0.0000
    70 H22         13.4284    23.5057     6.6345 H            1 L75423   0.0000
    71 H23         14.3357    24.8606     6.7213 H            1 L75423   0.0000
    72 H24         16.2786    23.5311     6.3495 H            1 L75423   0.0000
    73 H25         14.6601    22.9597     8.6542 H            1 L75423   0.0000
    74 H26         15.8268    24.0966     8.5397 H            1 L75423   0.0000
    75 H27         18.2923    23.0605     7.9392 H            1 L75423   0.0000
    76 H28         19.8532    21.4943     8.8758 H            1 L75423   0.0000
    77 H29         19.0596    19.7049    10.2561 H            1 L75423   0.0000
    78 H30         16.7322    19.4293    10.7236 H            1 L75423   0.0000
    79 H31         15.1510    21.0041     9.8339 H            1 L75423   0.0000
    80 H32         17.0866    21.8470     5.2184 H            1 L75423   0.0000
    81 H33         15.8447    19.2818     5.9351 H            1 L75423   0.0000
    82 H34         18.0595    19.2018     6.8725 H            1 L75423   0.0000
    83 H35         18.6855    21.1802     5.6953 H            1 L75423   0.0000
    84 H36         17.8049    17.2171     5.5607 H            1 L75423   0.0000
    85 H37         19.1364    17.8438     4.8529 H            1 L75423   0.0000
    86 H38         18.3178    17.0553     2.4164 H            1 L75423   0.0000
    87 H39         17.0542    17.9394     0.5642 H            1 L75423   0.0000
    88 H40         15.4604    19.7112     0.9402 H            1 L75423   0.0000
    89 H41         15.0574    20.5404     3.1679 H            1 L75423   0.0000
    90 H42          7.9168    23.4012     1.1929 H            1 L75423   0.0000
    91 H43          7.1942    23.5585     2.6488 H            1 L75423   0.0000
    92 H44          9.4709    16.3582     2.0817 H            1 L75423   0.0000
    93 H45         10.5232    18.5492     1.6441 H            1 L75423   0.0000
    94 H46          5.8378    18.2917     3.0539 H            1 L75423   0.0000
    95 H47          7.1155    16.2467     2.6926 H            1 L75423   0.0000
    96 H48          6.0558    21.1898     3.2076 H            1 L75423   0.0000
    97 H49          9.1668    24.8741     2.4000 H            1 L75423   0.0000
    98 H50         11.8018    23.3177     4.4937 H            1 L75423   0.0000
@<TRIPOS>BOND
     1    1    2       1
     2    1   13       1
     3    1   39       1
     4    2    3       1
     5    3    4       1
     6    3   11       1
     7    4    5       2
     8    4    6      am
     9    6    7       1
    10    7    8       1
    11    7    9       1
    12    7   10       1
    13   11   12       1
    14   11   14       1
    15   12   13       1
    16   14   15       1
    17   15   16       1
    18   15   17       1
    19   17   18       1
    20   18   19       1
    21   18   26       1
    22   19   20       1
    23   20   21      ar
    24   20   25      ar
    25   21   22      ar
    26   22   23      ar
    27   23   24      ar
    28   24   25      ar
    29   26   27       2
    30   26   28      am
    31   28   29       1
    32   29   30       1
    33   29   38       1
    34   30   31       1
    35   30   32       1
    36   32   33       1
    37   33   34      ar
    38   33   38      ar
    39   34   35      ar
    40   35   36      ar
    41   36   37      ar
    42   37   38      ar
    43   39   47       1
    44   40   41      ar
    45   40   45      ar
    46   41   42      ar
    47   42   43      ar
    48   42   46       1
    49   43   44      ar
    50   43   48       1
    51   44   45      ar
    52   46   47       1
    53   47   48       2
    54    2   49       1
    55    2   50       1
    56    3   51       1
    57    6   52       1
    58    8   53       1
    59    8   54       1
    60    8   55       1
    61    9   56       1
    62    9   57       1
    63    9   58       1
    64   10   59       1
    65   10   60       1
    66   10   61       1
    67   12   62       1
    68   12   63       1
    69   13   64       1
    70   13   65       1
    71   14   66       1
    72   14   67       1
    73   15   68       1
    74   16   69       1
    75   17   70       1
    76   17   71       1
    77   18   72       1
    78   19   73       1
    79   19   74       1
    80   21   75       1
    81   22   76       1
    82   23   77       1
    83   24   78       1
    84   25   79       1
    85   28   80       1
    86   29   81       1
    87   30   82       1
    88   31   83       1
    89   32   84       1
    90   32   85       1
    91   34   86       1
    92   35   87       1
    93   36   88       1
    94   37   89       1
    95   39   90       1
    96   39   91       1
    97   40   92       1
    98   41   93       1
    99   44   94       1
   100   45   95       1
   101   48   96       1
   102    1   97       1
   103   11   98       1
@<TRIPOS>SUBSTRUCTURE
     1 L75423      1 GROUP             4 B     L75     0 **** L75 B 423
