@<TRIPOS>MOLECULE
2o22_LIU_1_ligand
   77    80     1     0     0
SMALL
NO_CHARGES


@<TRIPOS>ATOM
     1 C1           3.7440     1.0250     6.5700 C.3          1 LIU1000   0.0000
     2 C2           2.5890     0.0610     6.1820 C.3          1 LIU1000   0.0000
     3 C3           1.5020     0.8790     5.4260 C.3          1 LIU1000   0.0000
     4 C4           1.0790     2.1980     6.1200 C.3          1 LIU1000   0.0000
     5 N5           2.2600     3.0610     6.4560 N.pl3        1 LIU1000   0.0000
     6 C6           3.2940     2.3310     7.2650 C.3          1 LIU1000   0.0000
     7 C7           3.1330    -1.0500     5.2620 C.3          1 LIU1000   0.0000
     8 C8           2.0030    -0.6320     7.4300 C.3          1 LIU1000   0.0000
     9 C9           2.4000     4.4910     6.0560 C.ar         1 LIU1000   0.0000
    10 C10          3.6610     5.0190     5.7530 C.ar         1 LIU1000   0.0000
    11 C11          3.8150     6.3490     5.3840 C.ar         1 LIU1000   0.0000
    12 C12          2.7110     7.2170     5.3030 C.ar         1 LIU1000   0.0000
    13 C13          1.4370     6.6890     5.6060 C.ar         1 LIU1000   0.0000
    14 C14          1.2870     5.3510     5.9760 C.ar         1 LIU1000   0.0000
    15 C15          2.9960     8.6650     4.8870 C.2          1 LIU1000   0.0000
    16 O16          4.1300     9.0610     4.6440 O.2          1 LIU1000   0.0000
    17 N17          2.0250     9.5710     4.7590 N.am         1 LIU1000   0.0000
    18 S18          2.3110    11.1500     4.1880 S.o2         1 LIU1000   0.0000
    19 C19          3.1710    11.1270     2.6470 C.ar         1 LIU1000   0.0000
    20 C20          2.4530    11.1220     1.4560 C.ar         1 LIU1000   0.0000
    21 C21          3.1250    11.0740     0.2220 C.ar         1 LIU1000   0.0000
    22 C22          4.5530    11.0780     0.2140 C.ar         1 LIU1000   0.0000
    23 C23          5.2350    11.0800     1.4400 C.ar         1 LIU1000   0.0000
    24 C24          4.5530    11.1230     2.6420 C.ar         1 LIU1000   0.0000
    25 N25          5.2780    11.0410    -1.0830 N.pl3        1 LIU1000   0.0000
    26 C26          6.6930    10.9960    -1.5580 C.3          1 LIU1000   0.0000
    27 C27          7.1310     9.5420    -1.8770 C.3          1 LIU1000   0.0000
    28 S28          7.5460     8.5240    -0.4150 S.3          1 LIU1000   0.0000
    29 C29          6.0760     7.9790     0.3590 C.ar         1 LIU1000   0.0000
    30 C30          6.1270     7.6550     1.7180 C.ar         1 LIU1000   0.0000
    31 C31          4.9400     7.3800     2.3950 C.ar         1 LIU1000   0.0000
    32 C32          3.7200     7.4000     1.7140 C.ar         1 LIU1000   0.0000
    33 C33          3.6870     7.6900     0.3440 C.ar         1 LIU1000   0.0000
    34 C34          4.8700     7.9570    -0.3450 C.ar         1 LIU1000   0.0000
    35 N35          2.2420    11.0150    -1.0150 N.2          1 LIU1000   1.0000
    36 O36          2.5480    10.3440    -1.9920 O.co2        1 LIU1000   0.0000
    37 O37          1.1930    11.6350    -1.0870 O.co2        1 LIU1000  -1.0000
    38 O38          3.1060    11.9500     5.3140 O.2          1 LIU1000   0.0000
    39 O39          0.8330    11.7050     4.0170 O.2          1 LIU1000   0.0000
    40 C40          6.7040    11.8380    -2.8340 C.3          1 LIU1000   0.0000
    41 C41          7.6780    11.6890    -0.6000 C.3          1 LIU1000   0.0000
    42 H1           4.2373     1.2709     5.7356 H            1 LIU1000   0.0000
    43 H2           4.3596     0.5389     7.1903 H            1 LIU1000   0.0000
    44 H3           0.6898     0.3034     5.3312 H            1 LIU1000   0.0000
    45 H4           1.8579     1.1052     4.5193 H            1 LIU1000   0.0000
    46 H5           0.5906     1.9764     6.9640 H            1 LIU1000   0.0000
    47 H6           0.4727     2.7050     5.5074 H            1 LIU1000   0.0000
    48 H7           4.0895     2.9247     7.3862 H            1 LIU1000   0.0000
    49 H8           2.9068     2.1059     8.1591 H            1 LIU1000   0.0000
    50 H9           2.3892    -1.6702     5.0126 H            1 LIU1000   0.0000
    51 H10          3.5165    -0.6396     4.4346 H            1 LIU1000   0.0000
    52 H11          3.8462    -1.5609     5.7420 H            1 LIU1000   0.0000
    53 H12          1.2632    -1.2456     7.1540 H            1 LIU1000   0.0000
    54 H13          2.7201    -1.1587     7.8864 H            1 LIU1000   0.0000
    55 H14          1.6459     0.0592     8.0583 H            1 LIU1000   0.0000
    56 H15          4.4657     4.4274     5.8032 H            1 LIU1000   0.0000
    57 H16          4.7284     6.6963     5.1718 H            1 LIU1000   0.0000
    58 H17          0.6323     7.2805     5.5550 H            1 LIU1000   0.0000
    59 H18          0.3757     4.9978     6.1874 H            1 LIU1000   0.0000
    60 H19          1.0917     9.3126     5.0083 H            1 LIU1000   0.0000
    61 H20          1.4537    11.1527     1.4774 H            1 LIU1000   0.0000
    62 H21          6.2345    11.0497     1.4446 H            1 LIU1000   0.0000
    63 H22          5.0580    11.1511     3.5047 H            1 LIU1000   0.0000
    64 H23          4.6397    11.0483    -1.8528 H            1 LIU1000   0.0000
    65 H24          7.9380     9.5829    -2.4662 H            1 LIU1000   0.0000
    66 H25          6.3835     9.0927    -2.3663 H            1 LIU1000   0.0000
    67 H26          7.0036     7.6210     2.1981 H            1 LIU1000   0.0000
    68 H27          4.9616     7.1676     3.3719 H            1 LIU1000   0.0000
    69 H28          2.8703     7.2072     2.2048 H            1 LIU1000   0.0000
    70 H29          2.8129     7.7057    -0.1414 H            1 LIU1000   0.0000
    71 H30          4.8548     8.1303    -1.3297 H            1 LIU1000   0.0000
    72 H31          7.6287    11.8548    -3.2143 H            1 LIU1000   0.0000
    73 H32          6.0760    11.4389    -3.5021 H            1 LIU1000   0.0000
    74 H33          6.4144    12.7710    -2.6202 H            1 LIU1000   0.0000
    75 H34          8.6044    11.6257    -0.9712 H            1 LIU1000   0.0000
    76 H35          7.4242    12.6510    -0.4995 H            1 LIU1000   0.0000
    77 H36          7.6455    11.2406     0.2933 H            1 LIU1000   0.0000
@<TRIPOS>BOND
     1    1    2       1
     2    1    6       1
     3    2    3       1
     4    2    7       1
     5    2    8       1
     6    3    4       1
     7    4    5       1
     8    5    6       1
     9    5    9       1
    10    9   10      ar
    11    9   14      ar
    12   10   11      ar
    13   11   12      ar
    14   12   13      ar
    15   12   15       1
    16   13   14      ar
    17   15   16       2
    18   15   17      am
    19   17   18       1
    20   18   19       1
    21   18   38       2
    22   18   39       2
    23   19   20      ar
    24   19   24      ar
    25   20   21      ar
    26   21   22      ar
    27   21   35       1
    28   22   23      ar
    29   22   25       1
    30   23   24      ar
    31   25   26       1
    32   26   27       1
    33   26   40       1
    34   26   41       1
    35   27   28       1
    36   28   29       1
    37   29   30      ar
    38   29   34      ar
    39   30   31      ar
    40   31   32      ar
    41   32   33      ar
    42   33   34      ar
    43   35   36      ar
    44   35   37      ar
    45    1   42       1
    46    1   43       1
    47    3   44       1
    48    3   45       1
    49    4   46       1
    50    4   47       1
    51    6   48       1
    52    6   49       1
    53    7   50       1
    54    7   51       1
    55    7   52       1
    56    8   53       1
    57    8   54       1
    58    8   55       1
    59   10   56       1
    60   11   57       1
    61   13   58       1
    62   14   59       1
    63   17   60       1
    64   20   61       1
    65   23   62       1
    66   24   63       1
    67   25   64       1
    68   27   65       1
    69   27   66       1
    70   30   67       1
    71   31   68       1
    72   32   69       1
    73   33   70       1
    74   34   71       1
    75   40   72       1
    76   40   73       1
    77   40   74       1
    78   41   75       1
    79   41   76       1
    80   41   77       1
@<TRIPOS>SUBSTRUCTURE
     1 LIU1000     1 GROUP             4 A     LIU     0 **** LIU A1000
