@<TRIPOS>MOLECULE
4yac_NAI_1_ligand
   39    41     1     0     0
SMALL
NO_CHARGES


@<TRIPOS>ATOM
     1 PA          -0.6980   -37.9320     9.6890 P.3          1 NAI500   0.0000
     2 O1A         -0.7950   -39.1360     8.7850 O.co2        1 NAI500   0.0000
     3 O2A          0.6520   -37.9620    10.4280 O.co2        1 NAI500  -1.0000
     4 O5B         -1.8740   -37.9530    10.7330 O.3          1 NAI500   0.0000
     5 C5B         -3.1880   -38.0100    10.2810 C.3          1 NAI500   0.0000
     6 C4B         -4.0230   -38.6860    11.2850 C.3          1 NAI500   0.0000
     7 O4B         -5.4300   -38.4540    10.9400 O.3          1 NAI500   0.0000
     8 C3B         -3.7980   -40.1260    11.2850 C.3          1 NAI500   0.0000
     9 O3B         -3.6280   -40.6120    12.6100 O.3          1 NAI500   0.0000
    10 C2B         -4.9660   -40.6990    10.6650 C.3          1 NAI500   0.0000
    11 O2B         -5.2210   -42.0330    11.1450 O.3          1 NAI500   0.0000
    12 C1B         -6.0340   -39.7850    11.0120 C.3          1 NAI500   0.0000
    13 N9A         -7.1820   -39.8930    10.1540 N.pl3        1 NAI500   0.0000
    14 C8A         -7.2260   -39.9650     8.7940 C.2          1 NAI500   0.0000
    15 N7A         -8.4980   -40.0720     8.3750 N.2          1 NAI500   0.0000
    16 C5A         -9.3260   -40.0680     9.4660 C.ar         1 NAI500   0.0000
    17 C6A        -10.6970   -40.1460     9.6870 C.ar         1 NAI500   0.0000
    18 N6A        -11.6280   -40.2690     8.6090 N.pl3        1 NAI500   0.0000
    19 N1A        -11.1770   -40.1120    10.9610 N.ar         1 NAI500   0.0000
    20 C2A        -10.3540   -40.0070    12.0210 C.ar         1 NAI500   0.0000
    21 N3A         -9.0230   -39.9230    11.8510 N.ar         1 NAI500   0.0000
    22 C4A         -8.4860   -39.9550    10.6050 C.ar         1 NAI500   0.0000
    23 O3          -0.8280   -36.6330     8.8600 O.3          1 NAI500   0.0000
    24 PN          -0.1550   -35.2540     9.3250 P.3          1 NAI500   0.0000
    25 O1N          1.3580   -35.4060     9.3230 O.co2        1 NAI500   0.0000
    26 O2N         -0.5860   -34.0920     8.3090 O.co2        1 NAI500  -1.0000
    27 O5D         -0.6340   -34.8860    10.7520 O.co2        1 NAI500  -1.0000
    28 H5B1        -3.2229   -38.5192     9.4210 H            1 NAI500   0.0000
    29 H5B2        -3.5301   -37.0821    10.1331 H            1 NAI500   0.0000
    30 H4B         -3.8306   -38.3129    12.1926 H            1 NAI500   0.0000
    31 H3B         -2.9873   -40.3407    10.7403 H            1 NAI500   0.0000
    32 H5          -4.4493   -40.4147    13.1454 H            1 NAI500   0.0000
    33 H2B         -4.8463   -40.7156     9.6723 H            1 NAI500   0.0000
    34 H7          -5.3684   -42.0090    12.1338 H            1 NAI500   0.0000
    35 H1B         -6.3170   -39.9612    11.9548 H            1 NAI500   0.0000
    36 H8A         -6.4264   -39.9416     8.1940 H            1 NAI500   0.0000
    37 H6A1       -12.6084   -40.3230     8.7987 H            1 NAI500   0.0000
    38 H6A2       -11.2988   -40.3011     7.6653 H            1 NAI500   0.0000
    39 H2A        -10.7367   -39.9913    12.9447 H            1 NAI500   0.0000
@<TRIPOS>BOND
     1    1    2      ar
     2    1    3      ar
     3    1    4       1
     4    1   23       1
     5    4    5       1
     6    5    6       1
     7    6    7       1
     8    6    8       1
     9    7   12       1
    10    8    9       1
    11    8   10       1
    12   10   11       1
    13   10   12       1
    14   12   13       1
    15   13   14       1
    16   13   22       1
    17   14   15       2
    18   15   16       1
    19   16   17      ar
    20   16   22      ar
    21   17   18       1
    22   17   19      ar
    23   19   20      ar
    24   20   21      ar
    25   21   22      ar
    26   23   24       1
    27   24   25      ar
    28   24   26      ar
    29   24   27      ar
    30   20   39       1
    31    5   28       1
    32    5   29       1
    33    6   30       1
    34    8   31       1
    35    9   32       1
    36   10   33       1
    37   11   34       1
    38   12   35       1
    39   14   36       1
    40   18   37       1
    41   18   38       1
@<TRIPOS>SUBSTRUCTURE
     1 NAI500      1 GROUP             4 A     NAI     0 **** NAI A 500
