@<TRIPOS>MOLECULE
3f68_91U_1_ligand
   62    64     1     0     0
SMALL
NO_CHARGES


@<TRIPOS>ATOM
     1 C47         17.2460   -17.0620    23.7640 C.2          1 91U901   0.0000
     2 O48         18.0830   -17.7930    23.2470 O.2          1 91U901   0.0000
     3 C49         16.6730   -17.5100    25.0830 C.3          1 91U901   0.0000
     4 C1          19.5960   -14.3690    25.0120 C.3          1 91U901   0.0000
     5 C6          20.4340   -14.4730    23.7030 C.3          1 91U901   0.0000
     6 C5          21.9310   -14.6710    24.0480 C.3          1 91U901   0.0000
     7 C4          22.4320   -13.5320    24.9550 C.3          1 91U901   0.0000
     8 C3          21.5350   -13.2610    26.1780 C.3          1 91U901   0.0000
     9 C2          20.0410   -13.0960    25.7820 C.3          1 91U901   0.0000
    10 N           16.8970   -15.8960    23.1390 N.am         1 91U901   0.0000
    11 C15         17.8040   -14.7420    23.1940 C.3          1 91U901   0.0000
    12 C31         18.0660   -14.4250    24.7040 C.3          1 91U901   0.0000
    13 C14         17.2690   -13.5320    22.4620 C.2          1 91U901   0.0000
    14 O32         16.2220   -13.0730    22.9020 O.2          1 91U901   0.0000
    15 N1          17.9290   -12.9930    21.3930 N.am         1 91U901   0.0000
    16 C32         17.4840   -11.7760    20.7390 C.3          1 91U901   0.0000
    17 C7          15.9990   -11.7370    20.4600 C.2          1 91U901   0.0000
    18 O22         15.4200   -12.7430    20.0720 O.2          1 91U901   0.0000
    19 C35         18.2600   -11.9090    19.3920 C.3          1 91U901   0.0000
    20 C34         19.5780   -12.6040    19.7990 C.3          1 91U901   0.0000
    21 C33         19.0900   -13.6780    20.8010 C.3          1 91U901   0.0000
    22 N23         15.3080   -10.5830    20.6460 N.am         1 91U901   0.0000
    23 C24         13.8730   -10.5960    20.3560 C.3          1 91U901   0.0000
    24 C25         13.0160   -10.4950    21.6230 C.ar         1 91U901   0.0000
    25 C26         12.1440   -11.5250    21.9710 C.ar         1 91U901   0.0000
    26 C27         11.3700   -11.4470    23.1350 C.ar         1 91U901   0.0000
    27 C28         11.4280   -10.2920    23.9420 C.ar         1 91U901   0.0000
    28 C29         12.3220    -9.2710    23.6070 C.ar         1 91U901   0.0000
    29 C30         13.0730    -9.3430    22.4230 C.ar         1 91U901   0.0000
    30 CL21        12.4570    -7.8540    24.6340 Cl           1 91U901   0.0000
    31 H1          16.0061   -16.8368    25.4026 H            1 91U901   0.0000
    32 H2          16.2234   -18.3957    24.9675 H            1 91U901   0.0000
    33 H3          17.4090   -17.5948    25.7546 H            1 91U901   0.0000
    34 H4          19.8204   -15.1610    25.5797 H            1 91U901   0.0000
    35 H5          20.3247   -13.6327    23.1720 H            1 91U901   0.0000
    36 H6          20.1122   -15.2518    23.1646 H            1 91U901   0.0000
    37 H7          22.4652   -14.6774    23.2027 H            1 91U901   0.0000
    38 H8          22.0466   -15.5439    24.5220 H            1 91U901   0.0000
    39 H9          22.4811   -12.6950    24.4100 H            1 91U901   0.0000
    40 H10         23.3462   -13.7705    25.2827 H            1 91U901   0.0000
    41 H11         21.8446   -12.4220    26.6254 H            1 91U901   0.0000
    42 H12         21.6171   -14.0279    26.8144 H            1 91U901   0.0000
    43 H13         19.4834   -12.9865    26.6048 H            1 91U901   0.0000
    44 H14         19.9332   -12.2922    25.1969 H            1 91U901   0.0000
    45 H15         16.0288   -15.8298    22.6472 H            1 91U901   0.0000
    46 H16         18.6722   -15.0049    22.7732 H            1 91U901   0.0000
    47 H17         17.6557   -13.5409    24.9277 H            1 91U901   0.0000
    48 H18         17.6463   -15.1387    25.2647 H            1 91U901   0.0000
    49 H19         17.7774   -10.9656    21.2462 H            1 91U901   0.0000
    50 H20         18.4390   -11.0098    18.9928 H            1 91U901   0.0000
    51 H21         17.7486   -12.4677    18.7390 H            1 91U901   0.0000
    52 H22         20.2067   -11.9605    20.2357 H            1 91U901   0.0000
    53 H23         20.0254   -13.0228    19.0088 H            1 91U901   0.0000
    54 H24         18.8220   -14.5214    20.3354 H            1 91U901   0.0000
    55 H25         19.7863   -13.8837    21.4886 H            1 91U901   0.0000
    56 H26         15.7632    -9.7535    20.9696 H            1 91U901   0.0000
    57 H27         13.6490   -11.4490    19.8847 H            1 91U901   0.0000
    58 H28         13.6591    -9.8207    19.7617 H            1 91U901   0.0000
    59 H29         12.0703   -12.3297    21.3820 H            1 91U901   0.0000
    60 H30         10.7768   -12.2093    23.3938 H            1 91U901   0.0000
    61 H31         10.8370   -10.2045    24.7439 H            1 91U901   0.0000
    62 H32         13.6491    -8.5728    22.1493 H            1 91U901   0.0000
@<TRIPOS>BOND
     1    1    2       2
     2    1    3       1
     3    1   10      am
     4    4    5       1
     5    4    9       1
     6    4   12       1
     7    5    6       1
     8    6    7       1
     9    7    8       1
    10    8    9       1
    11   10   11       1
    12   11   12       1
    13   11   13       1
    14   13   14       2
    15   13   15      am
    16   15   16       1
    17   15   21       1
    18   16   17       1
    19   16   19       1
    20   17   18       2
    21   17   22      am
    22   19   20       1
    23   20   21       1
    24   22   23       1
    25   23   24       1
    26   24   25      ar
    27   24   29      ar
    28   25   26      ar
    29   26   27      ar
    30   27   28      ar
    31   28   29      ar
    32   28   30       1
    33    3   31       1
    34    3   32       1
    35    3   33       1
    36    4   34       1
    37    5   35       1
    38    5   36       1
    39    6   37       1
    40    6   38       1
    41    7   39       1
    42    7   40       1
    43    8   41       1
    44    8   42       1
    45    9   43       1
    46    9   44       1
    47   10   45       1
    48   11   46       1
    49   12   47       1
    50   12   48       1
    51   16   49       1
    52   19   50       1
    53   19   51       1
    54   20   52       1
    55   20   53       1
    56   21   54       1
    57   21   55       1
    58   22   56       1
    59   23   57       1
    60   23   58       1
    61   25   59       1
    62   26   60       1
    63   27   61       1
    64   29   62       1
@<TRIPOS>SUBSTRUCTURE
     1 91U901      1 GROUP             4 H     91U     0 **** 91U H 901
