@<TRIPOS>MOLECULE
3pcr_GTP_1_ligand
   44    46     1     0     0
SMALL
NO_CHARGES


@<TRIPOS>ATOM
     1 PG         -46.4250   -14.9240   -28.6560 P.3          1 GTP1230   0.0000
     2 O1G        -47.4430   -14.4460   -27.6430 O.co2        1 GTP1230   0.0000
     3 O2G        -45.0850   -14.3660   -28.2760 O.co2        1 GTP1230  -1.0000
     4 O3G        -46.8500   -14.3720   -29.9920 O.co2        1 GTP1230  -1.0000
     5 O3B        -46.3640   -16.5320   -28.7380 O.3          1 GTP1230   0.0000
     6 PB         -45.2130   -17.3540   -29.4980 P.3          1 GTP1230   0.0000
     7 O1B        -45.7070   -18.3900   -30.4790 O.co2        1 GTP1230   0.0000
     8 O2B        -44.1780   -16.4400   -30.1260 O.co2        1 GTP1230  -1.0000
     9 O3A        -44.6130   -18.2810   -28.3450 O.3          1 GTP1230   0.0000
    10 PA         -43.0320   -18.4800   -28.1880 P.3          1 GTP1230   0.0000
    11 O1A        -42.2880   -18.7060   -29.4880 O.co2        1 GTP1230   0.0000
    12 O2A        -42.6190   -17.2250   -27.4480 O.co2        1 GTP1230  -1.0000
    13 O5'        -43.0560   -19.8600   -27.3950 O.3          1 GTP1230   0.0000
    14 C5'        -44.0250   -20.0550   -26.3740 C.3          1 GTP1230   0.0000
    15 C4'        -43.3890   -20.9030   -25.2780 C.3          1 GTP1230   0.0000
    16 O4'        -43.4080   -22.2400   -25.7500 O.3          1 GTP1230   0.0000
    17 C3'        -41.9390   -20.4840   -25.1080 C.3          1 GTP1230   0.0000
    18 O3'        -41.5950   -20.4530   -23.7430 O.3          1 GTP1230   0.0000
    19 C2'        -41.1820   -21.5570   -25.8690 C.3          1 GTP1230   0.0000
    20 O2'        -39.8930   -21.8190   -25.3580 O.3          1 GTP1230   0.0000
    21 C1'        -42.1070   -22.7620   -25.7800 C.3          1 GTP1230   0.0000
    22 N9         -41.8580   -23.6210   -26.9460 N.pl3        1 GTP1230   0.0000
    23 C8         -41.6540   -23.2410   -28.2510 C.2          1 GTP1230   0.0000
    24 N7         -41.4180   -24.3660   -28.9770 N.2          1 GTP1230   0.0000
    25 C5         -41.4610   -25.4470   -28.1590 C.2          1 GTP1230   0.0000
    26 C6         -41.2950   -26.8210   -28.3610 C.2          1 GTP1230   0.0000
    27 O6         -41.0590   -27.2900   -29.4710 O.2          1 GTP1230   0.0000
    28 N1         -41.4020   -27.6860   -27.2900 N.pl3        1 GTP1230   0.0000
    29 C2         -41.6690   -27.1910   -26.0260 C.2          1 GTP1230   0.0000
    30 N2         -41.7690   -28.0210   -24.9940 N.pl3        1 GTP1230   0.0000
    31 N3         -41.8320   -25.8320   -25.8330 N.2          1 GTP1230   0.0000
    32 C4         -41.7300   -24.9800   -26.8790 C.2          1 GTP1230   0.0000
    33 H5'1       -44.8228   -20.5273   -26.7488 H            1 GTP1230   0.0000
    34 H5'2       -44.3062   -19.1714   -25.9995 H            1 GTP1230   0.0000
    35 H4'        -43.8922   -20.8171   -24.4181 H            1 GTP1230   0.0000
    36 H3'        -41.7852   -19.5883   -25.5253 H            1 GTP1230   0.0000
    37 H5         -40.6390   -20.1760   -23.6464 H            1 GTP1230   0.0000
    38 H2'        -41.1013   -21.2799   -26.8265 H            1 GTP1230   0.0000
    39 H7         -39.2285   -21.2223   -25.8078 H            1 GTP1230   0.0000
    40 H1'        -41.9245   -23.2697   -24.9380 H            1 GTP1230   0.0000
    41 H9         -41.6753   -22.3053   -28.6032 H            1 GTP1230   0.0000
    42 H10        -41.2866   -28.6697   -27.4279 H            1 GTP1230   0.0000
    43 H11        -41.9620   -27.6623   -24.0807 H            1 GTP1230   0.0000
    44 H12        -41.6513   -29.0047   -25.1302 H            1 GTP1230   0.0000
@<TRIPOS>BOND
     1    1    2      ar
     2    1    3      ar
     3    1    4      ar
     4    1    5       1
     5    5    6       1
     6    6    7      ar
     7    6    8      ar
     8    6    9       1
     9    9   10       1
    10   10   11      ar
    11   10   12      ar
    12   10   13       1
    13   13   14       1
    14   14   15       1
    15   15   16       1
    16   15   17       1
    17   16   21       1
    18   17   18       1
    19   17   19       1
    20   19   20       1
    21   19   21       1
    22   21   22       1
    23   22   23       1
    24   22   32       1
    25   23   24       2
    26   24   25       1
    27   25   26       1
    28   25   32       2
    29   26   27       2
    30   26   28       1
    31   28   29       1
    32   29   30       1
    33   29   31       2
    34   31   32       1
    35   30   44       1
    36   30   43       1
    37   28   42       1
    38   23   41       1
    39   14   33       1
    40   14   34       1
    41   15   35       1
    42   17   36       1
    43   18   37       1
    44   19   38       1
    45   20   39       1
    46   21   40       1
@<TRIPOS>SUBSTRUCTURE
     1 GTP1230     1 GROUP             4 B     GTP     0 **** GTP B1230
