@<TRIPOS>MOLECULE
4uir_FAD_1_ligand
   84    89     1     0     0
SMALL
NO_CHARGES


@<TRIPOS>ATOM
     1 PA          35.6450   -22.8480   -17.0950 P.3          1 FAD701   0.0000
     2 O1A         34.3720   -23.5030   -16.6180 O.co2        1 FAD701   0.0000
     3 O2A         36.1040   -21.5500   -16.4740 O.co2        1 FAD701  -1.0000
     4 O5B         36.8460   -23.9120   -16.9630 O.3          1 FAD701   0.0000
     5 C5B         36.5400   -25.3010   -17.0160 C.3          1 FAD701   0.0000
     6 C4B         37.6640   -26.1080   -16.3890 C.3          1 FAD701   0.0000
     7 O4B         38.7870   -26.2440   -17.2640 O.3          1 FAD701   0.0000
     8 C3B         38.1940   -25.4530   -15.1240 C.3          1 FAD701   0.0000
     9 O3B         37.7310   -26.1540   -13.9710 O.3          1 FAD701   0.0000
    10 C2B         39.7000   -25.5810   -15.2150 C.3          1 FAD701   0.0000
    11 O2B         40.2160   -26.1790   -14.0210 O.3          1 FAD701   0.0000
    12 C1B         39.9160   -26.4860   -16.4200 C.3          1 FAD701   0.0000
    13 N9A         41.2480   -26.2550   -17.0460 N.pl3        1 FAD701   0.0000
    14 C8A         41.7180   -25.1240   -17.6120 C.2          1 FAD701   0.0000
    15 N7A         42.9960   -25.2890   -18.0590 N.2          1 FAD701   0.0000
    16 C5A         43.3590   -26.5500   -17.7660 C.ar         1 FAD701   0.0000
    17 C6A         44.5640   -27.3890   -17.9480 C.ar         1 FAD701   0.0000
    18 N6A         45.6660   -26.9050   -18.5510 N.pl3        1 FAD701   0.0000
    19 N1A         44.5320   -28.6570   -17.4940 N.ar         1 FAD701   0.0000
    20 C2A         43.4370   -29.1610   -16.8960 C.ar         1 FAD701   0.0000
    21 N3A         42.3060   -28.4620   -16.6930 N.ar         1 FAD701   0.0000
    22 C4A         42.2100   -27.1750   -17.0960 C.ar         1 FAD701   0.0000
    23 N1          27.4490   -16.3790   -17.0260 N.2          1 FAD701   0.0000
    24 C2          26.2130   -15.9010   -17.2440 C.2          1 FAD701   0.0000
    25 O2          25.6690   -16.1370   -18.3450 O.2          1 FAD701   0.0000
    26 N3          25.5440   -15.1820   -16.3270 N.pl3        1 FAD701   0.0000
    27 C4          26.0720   -14.8940   -15.1380 C.2          1 FAD701   0.0000
    28 O4          25.4160   -14.2280   -14.3170 O.2          1 FAD701   0.0000
    29 C4X         27.4330   -15.3900   -14.8160 C.2          1 FAD701   0.0000
    30 N5          28.0290   -15.1590   -13.6380 N.2          1 FAD701   0.0000
    31 C5X         29.1790   -15.7730   -13.3170 C.ar         1 FAD701   0.0000
    32 C6          29.7010   -15.6640   -12.0300 C.ar         1 FAD701   0.0000
    33 C7          30.9040   -16.2940   -11.7130 C.ar         1 FAD701   0.0000
    34 C7M         31.4960   -16.1970   -10.3380 C.3          1 FAD701   0.0000
    35 C8          31.6400   -17.0730   -12.7380 C.ar         1 FAD701   0.0000
    36 C8M         32.9360   -17.7550   -12.3890 C.3          1 FAD701   0.0000
    37 C9          31.1320   -17.1720   -14.0240 C.ar         1 FAD701   0.0000
    38 C9A         29.9270   -16.5610   -14.3520 C.ar         1 FAD701   0.0000
    39 N10         29.4000   -16.6790   -15.6590 N.pl3        1 FAD701   0.0000
    40 C10         28.1040   -16.1720   -15.8780 C.2          1 FAD701   0.0000
    41 C1'         30.1160   -17.3940   -16.7280 C.3          1 FAD701   0.0000
    42 C2'         30.0380   -18.9040   -16.8490 C.3          1 FAD701   0.0000
    43 O2'         30.0330   -19.5460   -15.5740 O.3          1 FAD701   0.0000
    44 C3'         31.2990   -19.3060   -17.5880 C.3          1 FAD701   0.0000
    45 O3'         31.5170   -18.3600   -18.6300 O.3          1 FAD701   0.0000
    46 C4'         31.2100   -20.6950   -18.1980 C.3          1 FAD701   0.0000
    47 O4'         30.9760   -21.6770   -17.1820 O.3          1 FAD701   0.0000
    48 C5'         32.5070   -20.9700   -18.9530 C.3          1 FAD701   0.0000
    49 O5'         33.1190   -22.2190   -18.6240 O.3          1 FAD701   0.0000
    50 P           34.2750   -22.7820   -19.5910 P.3          1 FAD701   0.0000
    51 O1P         33.9960   -24.2290   -19.8990 O.co2        1 FAD701   0.0000
    52 O2P         34.4880   -21.8200   -20.7300 O.co2        1 FAD701  -1.0000
    53 O3P         35.6050   -22.6460   -18.6920 O.3          1 FAD701   0.0000
    54 H5B1        36.4261   -25.5783   -17.9700 H            1 FAD701   0.0000
    55 H5B2        35.6912   -25.4719   -16.5156 H            1 FAD701   0.0000
    56 H4B         37.3197   -27.0188   -16.1613 H            1 FAD701   0.0000
    57 H3B         37.9233   -24.4911   -15.0846 H            1 FAD701   0.0000
    58 H5          38.0502   -27.1010   -14.0062 H            1 FAD701   0.0000
    59 H2B         40.1194   -24.6863   -15.3687 H            1 FAD701   0.0000
    60 H7          41.2103   -26.2590   -14.0911 H            1 FAD701   0.0000
    61 H1B         39.8767   -27.4357   -16.1093 H            1 FAD701   0.0000
    62 H8A         41.1967   -24.2745   -17.6933 H            1 FAD701   0.0000
    63 H6A1        46.4706   -27.4878   -18.6646 H            1 FAD701   0.0000
    64 H6A2        45.6800   -25.9626   -18.8853 H            1 FAD701   0.0000
    65 H2A         43.4658   -30.1107   -16.5843 H            1 FAD701   0.0000
    66 H13         24.6243   -14.8539   -16.5429 H            1 FAD701   0.0000
    67 H14         29.2140   -15.1351   -11.3349 H            1 FAD701   0.0000
    68 H7M1        32.3532   -16.7110   -10.3071 H            1 FAD701   0.0000
    69 H7M2        31.6745   -15.2378   -10.1188 H            1 FAD701   0.0000
    70 H7M3        30.8550   -16.5775    -9.6715 H            1 FAD701   0.0000
    71 H8M1        33.2902   -18.2299   -13.1946 H            1 FAD701   0.0000
    72 H8M2        33.6007   -17.0724   -12.0854 H            1 FAD701   0.0000
    73 H8M3        32.7779   -18.4157   -11.6552 H            1 FAD701   0.0000
    74 H21         31.6348   -17.6855   -14.7193 H            1 FAD701   0.0000
    75 H1'1        31.0842   -17.1673   -16.6220 H            1 FAD701   0.0000
    76 H1'2        29.7794   -17.0221   -17.5931 H            1 FAD701   0.0000
    77 H2'         29.2290   -19.1687   -17.3739 H            1 FAD701   0.0000
    78 H25         30.4584   -20.4476   -15.6531 H            1 FAD701   0.0000
    79 H3'         32.0719   -19.2770   -16.9541 H            1 FAD701   0.0000
    80 H27         32.4981   -18.2771   -18.8050 H            1 FAD701   0.0000
    81 H4'         30.4490   -20.7143   -18.8465 H            1 FAD701   0.0000
    82 H29         31.7265   -22.3379   -17.1780 H            1 FAD701   0.0000
    83 H5'1        33.1545   -20.2377   -18.7423 H            1 FAD701   0.0000
    84 H5'2        32.3070   -20.9665   -19.9328 H            1 FAD701   0.0000
@<TRIPOS>BOND
     1    1    2      ar
     2    1    3      ar
     3    1    4       1
     4    1   53       1
     5    4    5       1
     6    5    6       1
     7    6    7       1
     8    6    8       1
     9    7   12       1
    10    8    9       1
    11    8   10       1
    12   10   11       1
    13   10   12       1
    14   12   13       1
    15   13   14       1
    16   13   22       1
    17   14   15       2
    18   15   16       1
    19   16   17      ar
    20   16   22      ar
    21   17   18       1
    22   17   19      ar
    23   19   20      ar
    24   20   21      ar
    25   21   22      ar
    26   23   24       1
    27   23   40       2
    28   24   25       2
    29   24   26       1
    30   26   27       1
    31   27   28       2
    32   27   29       1
    33   29   30       2
    34   29   40       1
    35   30   31       1
    36   31   32      ar
    37   31   38      ar
    38   32   33      ar
    39   33   34       1
    40   33   35      ar
    41   35   36       1
    42   35   37      ar
    43   37   38      ar
    44   38   39       1
    45   39   40       1
    46   39   41       1
    47   41   42       1
    48   42   43       1
    49   42   44       1
    50   44   45       1
    51   44   46       1
    52   46   47       1
    53   46   48       1
    54   48   49       1
    55   49   50       1
    56   50   51      ar
    57   50   52      ar
    58   50   53       1
    59   48   84       1
    60    5   54       1
    61    5   55       1
    62    6   56       1
    63    8   57       1
    64    9   58       1
    65   10   59       1
    66   11   60       1
    67   12   61       1
    68   14   62       1
    69   18   63       1
    70   18   64       1
    71   20   65       1
    72   26   66       1
    73   32   67       1
    74   34   68       1
    75   34   69       1
    76   34   70       1
    77   36   71       1
    78   36   72       1
    79   36   73       1
    80   37   74       1
    81   41   75       1
    82   41   76       1
    83   42   77       1
    84   43   78       1
    85   44   79       1
    86   45   80       1
    87   46   81       1
    88   47   82       1
    89   48   83       1
@<TRIPOS>SUBSTRUCTURE
     1 FAD701      1 GROUP             4 A     FAD     0 **** FAD A 701
