@<TRIPOS>MOLECULE
3of1_CMP_1_ligand
   34    37     1     0     0
SMALL
NO_CHARGES


@<TRIPOS>ATOM
     1 P          -57.3220    18.4050   -25.6770 P.3          1 CMP501   0.0000
     2 O1P        -58.4940    17.9380   -24.8880 O.3          1 CMP501   0.0000
     3 O2P        -56.5600    19.5640   -25.0190 O.2          1 CMP501   0.0000
     4 O5'        -57.6640    18.7040   -27.2490 O.3          1 CMP501   0.0000
     5 C5'        -56.6470    18.7520   -28.2530 C.3          1 CMP501   0.0000
     6 C4'        -55.8780    17.4380   -28.0940 C.3          1 CMP501   0.0000
     7 O4'        -54.7340    17.2640   -28.9290 O.3          1 CMP501   0.0000
     8 C3'        -55.2620    17.3880   -26.7220 C.3          1 CMP501   0.0000
     9 O3'        -56.3200    17.1600   -25.7900 O.3          1 CMP501   0.0000
    10 C2'        -54.2410    16.2940   -26.8480 C.3          1 CMP501   0.0000
    11 O2'        -54.9520    15.0700   -26.5650 O.3          1 CMP501   0.0000
    12 C1'        -53.7500    16.4330   -28.2820 C.3          1 CMP501   0.0000
    13 N9         -52.4100    17.0920   -28.5480 N.pl3        1 CMP501   0.0000
    14 C8         -51.4990    16.5820   -29.3800 C.2          1 CMP501   0.0000
    15 N7         -50.3660    17.3560   -29.5010 N.2          1 CMP501   0.0000
    16 C5         -50.5420    18.4370   -28.7380 C.ar         1 CMP501   0.0000
    17 C6         -49.7160    19.6370   -28.4200 C.ar         1 CMP501   0.0000
    18 N6         -48.4660    19.7700   -29.0050 N.pl3        1 CMP501   0.0000
    19 N1         -50.2830    20.5760   -27.5470 N.ar         1 CMP501   0.0000
    20 C2         -51.5440    20.3980   -26.9930 C.ar         1 CMP501   0.0000
    21 N3         -52.3270    19.2980   -27.2510 N.ar         1 CMP501   0.0000
    22 C4         -51.9150    18.3040   -28.1250 C.ar         1 CMP501   0.0000
    23 H1P        -58.3730    16.9743   -24.6500 H            1 CMP501   0.0000
    24 H5'1       -56.0421    19.5343   -28.1045 H            1 CMP501   0.0000
    25 H5'2       -57.0542    18.8138   -29.1642 H            1 CMP501   0.0000
    26 H4'        -56.5021    16.6656   -28.2118 H            1 CMP501   0.0000
    27 H3'        -54.8091    18.2562   -26.5190 H            1 CMP501   0.0000
    28 H2'        -53.4916    16.4292   -26.1998 H            1 CMP501   0.0000
    29 H7         -54.9069    14.8773   -25.5848 H            1 CMP501   0.0000
    30 H1'        -53.7565    15.5309   -28.7135 H            1 CMP501   0.0000
    31 H9         -51.6271    15.7193   -29.8693 H            1 CMP501   0.0000
    32 H10        -47.9010    20.5695   -28.8010 H            1 CMP501   0.0000
    33 H11        -48.1295    19.0665   -29.6309 H            1 CMP501   0.0000
    34 H12        -51.8987    21.1024   -26.3782 H            1 CMP501   0.0000
@<TRIPOS>BOND
     1    1    2       1
     2    1    3       2
     3    1    4       1
     4    1    9       1
     5    4    5       1
     6    5    6       1
     7    6    7       1
     8    6    8       1
     9    7   12       1
    10    8    9       1
    11    8   10       1
    12   10   11       1
    13   10   12       1
    14   12   13       1
    15   13   14       1
    16   13   22       1
    17   14   15       2
    18   15   16       1
    19   16   17      ar
    20   16   22      ar
    21   17   18       1
    22   17   19      ar
    23   19   20      ar
    24   20   21      ar
    25   21   22      ar
    26    2   23       1
    27    5   24       1
    28    5   25       1
    29    6   26       1
    30    8   27       1
    31   10   28       1
    32   11   29       1
    33   12   30       1
    34   14   31       1
    35   18   32       1
    36   18   33       1
    37   20   34       1
@<TRIPOS>SUBSTRUCTURE
     1 CMP501      1 GROUP             4 A     CMP     0 **** CMP A 501
