@<TRIPOS>MOLECULE
3r3s_NAD_3_ligand
   70    74     1     0     0
SMALL
NO_CHARGES


@<TRIPOS>ATOM
     1 PA           2.8210    39.1730    40.5270 P.3          1 NAD300   0.0000
     2 O1A          3.2750    40.6210    40.5430 O.co2        1 NAD300   0.0000
     3 O2A          2.3060    38.5790    41.8390 O.co2        1 NAD300  -1.0000
     4 O5B          1.7890    38.9340    39.2930 O.3          1 NAD300   0.0000
     5 C5B          0.8800    37.8540    39.2740 C.3          1 NAD300   0.0000
     6 C4B         -0.4900    38.4780    39.1030 C.3          1 NAD300   0.0000
     7 O4B         -1.3830    37.4030    38.8440 O.3          1 NAD300   0.0000
     8 C3B         -1.0770    39.1790    40.3310 C.3          1 NAD300   0.0000
     9 O3B         -0.6810    40.5530    40.3860 O.3          1 NAD300   0.0000
    10 C2B         -2.5730    38.9590    40.1150 C.3          1 NAD300   0.0000
    11 O2B         -3.2060    40.1370    39.6490 O.3          1 NAD300   0.0000
    12 C1B         -2.6760    37.9130    39.0030 C.3          1 NAD300   0.0000
    13 N9A         -3.6010    36.8190    39.3800 N.pl3        1 NAD300   0.0000
    14 C8A         -3.3460    35.7170    40.1520 C.2          1 NAD300   0.0000
    15 N7A         -4.4730    35.0140    40.2840 N.2          1 NAD300   0.0000
    16 C5A         -5.4660    35.6590    39.6400 C.ar         1 NAD300   0.0000
    17 C6A         -6.8100    35.4210    39.4720 C.ar         1 NAD300   0.0000
    18 N6A         -7.4260    34.3950    40.0760 N.pl3        1 NAD300   0.0000
    19 N1A         -7.5420    36.3110    38.7330 N.ar         1 NAD300   0.0000
    20 C2A         -6.9760    37.4450    38.1920 C.ar         1 NAD300   0.0000
    21 N3A         -5.6490    37.6750    38.3720 N.ar         1 NAD300   0.0000
    22 C4A         -4.9130    36.8020    39.0830 C.ar         1 NAD300   0.0000
    23 O3           4.1010    38.2400    40.1570 O.3          1 NAD300   0.0000
    24 PN           4.8960    37.9580    38.7500 P.3          1 NAD300   0.0000
    25 O1N          5.1260    39.2810    38.0300 O.co2        1 NAD300   0.0000
    26 O2N          6.0300    37.0770    39.1810 O.co2        1 NAD300  -1.0000
    27 O5D          3.7770    37.0650    37.9800 O.3          1 NAD300   0.0000
    28 C5D          3.4620    37.3610    36.6070 C.3          1 NAD300   0.0000
    29 C4D          3.7790    36.1680    35.7030 C.3          1 NAD300   0.0000
    30 O4D          5.1740    35.9510    35.7300 O.3          1 NAD300   0.0000
    31 C3D          3.1110    34.8670    36.1580 C.3          1 NAD300   0.0000
    32 O3D          2.3610    34.2980    35.0950 O.3          1 NAD300   0.0000
    33 C2D          4.2940    33.9850    36.5300 C.3          1 NAD300   0.0000
    34 O2D          4.0370    32.6130    36.2390 O.3          1 NAD300   0.0000
    35 C1D          5.3880    34.5710    35.6340 C.3          1 NAD300   0.0000
    36 N1N          6.7380    34.2530    36.0880 N.ar         1 NAD300   1.0000
    37 C2N          7.2740    34.8040    37.2200 C.ar         1 NAD300   0.0000
    38 C3N          8.5490    34.4580    37.6070 C.ar         1 NAD300   0.0000
    39 C7N          9.1270    35.0920    38.8310 C.2          1 NAD300   0.0000
    40 O7N         10.2810    34.5590    39.2820 O.2          1 NAD300   0.0000
    41 N7N          8.5750    36.1370    39.4250 N.am         1 NAD300   0.0000
    42 C4N          9.3190    33.5650    36.8540 C.ar         1 NAD300   0.0000
    43 C5N          8.7630    33.0400    35.6930 C.ar         1 NAD300   0.0000
    44 C6N          7.4800    33.3860    35.3260 C.ar         1 NAD300   0.0000
    45 H5B1         0.9264    37.3435    40.1326 H            1 NAD300   0.0000
    46 H5B2         1.0822    37.2409    38.5103 H            1 NAD300   0.0000
    47 H4B         -0.4816    39.1067    38.3254 H            1 NAD300   0.0000
    48 H3B         -0.7823    38.7083    41.1626 H            1 NAD300   0.0000
    49 H5          -1.3506    41.1127    39.8978 H            1 NAD300   0.0000
    50 H2B         -3.0081    38.6300    40.9532 H            1 NAD300   0.0000
    51 H7          -3.5221    40.6766    40.4294 H            1 NAD300   0.0000
    52 H1B         -2.9818    38.3437    38.1539 H            1 NAD300   0.0000
    53 H8A         -2.4608    35.4782    40.5513 H            1 NAD300   0.0000
    54 H6A1        -8.4048    34.2465    39.9352 H            1 NAD300   0.0000
    55 H6A2        -6.9067    33.7781    40.6674 H            1 NAD300   0.0000
    56 H2A         -7.5355    38.0912    37.6729 H            1 NAD300   0.0000
    57 H5D1         4.0015    38.1489    36.3101 H            1 NAD300   0.0000
    58 H5D2         2.4884    37.5772    36.5340 H            1 NAD300   0.0000
    59 H4D          3.4944    36.3767    34.7673 H            1 NAD300   0.0000
    60 H3D          2.5278    35.0294    36.9539 H            1 NAD300   0.0000
    61 H17          1.6541    34.9425    34.8035 H            1 NAD300   0.0000
    62 H2D          4.5298    34.1016    37.4948 H            1 NAD300   0.0000
    63 H19          4.8322    32.0633    36.4949 H            1 NAD300   0.0000
    64 H1D          5.2607    34.2668    34.6899 H            1 NAD300   0.0000
    65 H2N          6.7426    35.4542    37.7630 H            1 NAD300   0.0000
    66 H7N1         8.9974    36.5283    40.2426 H            1 NAD300   0.0000
    67 H7N2         7.7352    36.5358    39.0565 H            1 NAD300   0.0000
    68 H4N         10.2424    33.3117    37.1425 H            1 NAD300   0.0000
    69 H5N          9.2936    32.4115    35.1242 H            1 NAD300   0.0000
    70 H6N          7.0845    32.9997    34.4927 H            1 NAD300   0.0000
@<TRIPOS>BOND
     1    1    2      ar
     2    1    3      ar
     3    1    4       1
     4    1   23       1
     5    4    5       1
     6    5    6       1
     7    6    7       1
     8    6    8       1
     9    7   12       1
    10    8    9       1
    11    8   10       1
    12   10   11       1
    13   10   12       1
    14   12   13       1
    15   13   14       1
    16   13   22       1
    17   14   15       2
    18   15   16       1
    19   16   17      ar
    20   16   22      ar
    21   17   18       1
    22   17   19      ar
    23   19   20      ar
    24   20   21      ar
    25   21   22      ar
    26   23   24       1
    27   24   25      ar
    28   24   26      ar
    29   24   27       1
    30   27   28       1
    31   28   29       1
    32   29   30       1
    33   29   31       1
    34   30   35       1
    35   31   32       1
    36   31   33       1
    37   33   34       1
    38   33   35       1
    39   35   36       1
    40   36   37      ar
    41   36   44      ar
    42   37   38      ar
    43   38   39       1
    44   38   42      ar
    45   39   40       2
    46   39   41      am
    47   42   43      ar
    48   43   44      ar
    49   44   70       1
    50    5   45       1
    51    5   46       1
    52    6   47       1
    53    8   48       1
    54    9   49       1
    55   10   50       1
    56   11   51       1
    57   12   52       1
    58   14   53       1
    59   18   54       1
    60   18   55       1
    61   20   56       1
    62   43   69       1
    63   28   57       1
    64   28   58       1
    65   29   59       1
    66   31   60       1
    67   32   61       1
    68   33   62       1
    69   34   63       1
    70   35   64       1
    71   37   65       1
    72   41   66       1
    73   41   67       1
    74   42   68       1
@<TRIPOS>SUBSTRUCTURE
     1 NAD300      1 GROUP             4 C     NAD     0 **** NAD C 300
