@<TRIPOS>MOLECULE
1mrk_FMC_1_ligand
   32    34     1     0     0
SMALL
NO_CHARGES


@<TRIPOS>ATOM
     1 N1          15.3520    -0.8200    38.6070 N.ar         1 FMC300   0.0000
     2 C2          14.6950    -1.9030    39.0430 C.ar         1 FMC300   0.0000
     3 N3          15.1290    -3.1500    39.1270 N.ar         1 FMC300   0.0000
     4 C4          16.4330    -3.2660    38.6900 C.ar         1 FMC300   0.0000
     5 C5          17.1270    -2.2220    38.0810 C.ar         1 FMC300   0.0000
     6 C6          16.5790    -0.9130    38.0870 C.ar         1 FMC300   0.0000
     7 N6          17.2740     0.1670    37.7280 N.pl3        1 FMC300   0.0000
     8 N7          18.3360    -2.7110    37.6900 N.pl3        1 FMC300   0.0000
     9 N8          18.4240    -4.0470    37.9680 N.2          1 FMC300   0.0000
    10 C9          17.2870    -4.4160    38.5600 C.2          1 FMC300   0.0000
    11 C1'         16.9810    -5.8540    38.9370 C.3          1 FMC300   0.0000
    12 C2'         15.4960    -6.0710    39.3420 C.3          1 FMC300   0.0000
    13 O2'         15.1730    -5.3460    40.5370 O.3          1 FMC300   0.0000
    14 C3'         15.5310    -7.6480    39.2700 C.3          1 FMC300   0.0000
    15 O3'         16.5000    -8.2800    40.1350 O.3          1 FMC300   0.0000
    16 C4'         16.0060    -7.7890    37.8080 C.3          1 FMC300   0.0000
    17 O4'         17.0920    -6.7810    37.8070 O.3          1 FMC300   0.0000
    18 C5'         14.9470    -7.5880    36.6600 C.3          1 FMC300   0.0000
    19 O5'         13.7780    -8.4070    36.7490 O.3          1 FMC300   0.0000
    20 H1          13.7540    -1.7488    39.3442 H            1 FMC300   0.0000
    21 H2          18.1907     0.0660    37.3413 H            1 FMC300   0.0000
    22 H3          16.8785     1.0779    37.8455 H            1 FMC300   0.0000
    23 H4          19.0582    -2.1693    37.2599 H            1 FMC300   0.0000
    24 H1'         17.5833    -6.1475    39.6793 H            1 FMC300   0.0000
    25 H2'         14.9145    -5.7341    38.6015 H            1 FMC300   0.0000
    26 H7          14.8472    -4.4321    40.2947 H            1 FMC300   0.0000
    27 H3'         14.6194    -8.0391    39.3965 H            1 FMC300   0.0000
    28 H9          17.3671    -8.3802    39.6471 H            1 FMC300   0.0000
    29 H4'         16.4183    -8.6935    37.6987 H            1 FMC300   0.0000
    30 H5'1        15.3961    -7.7860    35.7887 H            1 FMC300   0.0000
    31 H5'2        14.6548    -6.6317    36.6746 H            1 FMC300   0.0000
    32 H5'         13.3021    -8.2165    37.6076 H            1 FMC300   0.0000
@<TRIPOS>BOND
     1    1    2      ar
     2    1    6      ar
     3    2    3      ar
     4    3    4      ar
     5    4    5      ar
     6    4   10       1
     7    5    6      ar
     8    5    8       1
     9    6    7       1
    10    8    9       1
    11    9   10       2
    12   10   11       1
    13   11   12       1
    14   11   17       1
    15   12   13       1
    16   12   14       1
    17   14   15       1
    18   14   16       1
    19   16   17       1
    20   16   18       1
    21   18   19       1
    22    2   20       1
    23    7   21       1
    24    7   22       1
    25    8   23       1
    26   11   24       1
    27   12   25       1
    28   13   26       1
    29   14   27       1
    30   15   28       1
    31   16   29       1
    32   18   30       1
    33   18   31       1
    34   19   32       1
@<TRIPOS>SUBSTRUCTURE
     1 FMC300      1 GROUP             4 A     FMC     0 **** FMC A 300
