@<TRIPOS>MOLECULE
3nd6_ATP_5_ligand
   43    45     1     0     0
SMALL
NO_CHARGES


@<TRIPOS>ATOM
     1 PG         -13.7880   -30.3330    19.2830 P.3          1 ATP965   0.0000
     2 O1G        -14.4830   -30.4890    17.9500 O.co2        1 ATP965   0.0000
     3 O2G        -14.3310   -31.2310    20.3720 O.co2        1 ATP965  -1.0000
     4 O3G        -13.5580   -28.8990    19.7060 O.co2        1 ATP965  -1.0000
     5 PB         -11.2430   -30.3800    17.9670 P.3          1 ATP965   0.0000
     6 O1B        -11.1920   -28.8740    18.0410 O.co2        1 ATP965   0.0000
     7 O2B        -11.4740   -31.1040    16.6560 O.co2        1 ATP965  -1.0000
     8 O3B        -12.2990   -30.9250    19.0640 O.3          1 ATP965   0.0000
     9 PA          -9.2820   -30.8050    20.0030 P.3          1 ATP965   0.0000
    10 O1A        -10.1240   -29.7830    20.7130 O.co2        1 ATP965   0.0000
    11 O2A         -9.0540   -32.1630    20.6150 O.co2        1 ATP965  -1.0000
    12 O3A         -9.8770   -31.0350    18.5250 O.3          1 ATP965   0.0000
    13 O5'         -7.9090   -30.0790    19.6080 O.3          1 ATP965   0.0000
    14 C5'         -6.5910   -30.5140    19.9280 C.3          1 ATP965   0.0000
    15 C4'         -5.6770   -29.4350    19.3450 C.3          1 ATP965   0.0000
    16 O4'         -5.5110   -29.6840    17.9450 O.3          1 ATP965   0.0000
    17 C3'         -6.2750   -28.0360    19.4570 C.3          1 ATP965   0.0000
    18 O3'         -5.1950   -27.1160    19.6520 O.3          1 ATP965   0.0000
    19 C2'         -6.8990   -27.7920    18.0890 C.3          1 ATP965   0.0000
    20 O2'         -6.9820   -26.4070    17.7260 O.3          1 ATP965   0.0000
    21 C1'         -5.9590   -28.5670    17.1750 C.3          1 ATP965   0.0000
    22 N9          -6.6640   -29.0500    15.9560 N.pl3        1 ATP965   0.0000
    23 C8          -7.8460   -29.7030    15.9260 C.2          1 ATP965   0.0000
    24 N7          -8.1980   -29.9900    14.6500 N.2          1 ATP965   0.0000
    25 C5          -7.2260   -29.5210    13.8400 C.ar         1 ATP965   0.0000
    26 C6          -6.9650   -29.4890    12.3820 C.ar         1 ATP965   0.0000
    27 N6          -7.8510   -30.0230    11.5140 N.pl3        1 ATP965   0.0000
    28 N1          -5.8260   -28.9010    11.9480 N.ar         1 ATP965   0.0000
    29 C2          -4.9400   -28.3540    12.7990 C.ar         1 ATP965   0.0000
    30 N3          -5.1210   -28.3400    14.1330 N.ar         1 ATP965   0.0000
    31 C4          -6.2200   -28.9000    14.7040 C.ar         1 ATP965   0.0000
    32 H5'1        -6.4008   -31.4019    19.5092 H            1 ATP965   0.0000
    33 H5'2        -6.4718   -30.5803    20.9187 H            1 ATP965   0.0000
    34 H4'         -4.7877   -29.4611    19.8017 H            1 ATP965   0.0000
    35 H3'         -6.9516   -27.9775    20.1911 H            1 ATP965   0.0000
    36 H5          -5.4372   -26.2293    19.2581 H            1 ATP965   0.0000
    37 H2'         -7.8105   -28.2021    18.0582 H            1 ATP965   0.0000
    38 H7          -6.1485   -26.1384    17.2431 H            1 ATP965   0.0000
    39 H1'         -5.1812   -27.9939    16.9171 H            1 ATP965   0.0000
    40 H9          -8.3859   -29.9413    16.7333 H            1 ATP965   0.0000
    41 H10         -7.6664   -29.9968    10.5315 H            1 ATP965   0.0000
    42 H11         -8.6917   -30.4447    11.8537 H            1 ATP965   0.0000
    43 H12         -4.1105   -27.9395    12.4246 H            1 ATP965   0.0000
@<TRIPOS>BOND
     1    1    2      ar
     2    1    3      ar
     3    1    4      ar
     4    1    8       1
     5    5    6      ar
     6    5    7      ar
     7    5    8       1
     8    5   12       1
     9    9   10      ar
    10    9   11      ar
    11    9   12       1
    12    9   13       1
    13   13   14       1
    14   14   15       1
    15   15   16       1
    16   15   17       1
    17   16   21       1
    18   17   18       1
    19   17   19       1
    20   19   20       1
    21   19   21       1
    22   21   22       1
    23   22   23       1
    24   22   31       1
    25   23   24       2
    26   24   25       1
    27   25   26      ar
    28   25   31      ar
    29   26   27       1
    30   26   28      ar
    31   28   29      ar
    32   29   30      ar
    33   30   31      ar
    34   29   43       1
    35   27   42       1
    36   27   41       1
    37   23   40       1
    38   14   32       1
    39   14   33       1
    40   15   34       1
    41   17   35       1
    42   18   36       1
    43   19   37       1
    44   20   38       1
    45   21   39       1
@<TRIPOS>SUBSTRUCTURE
     1 ATP965      1 GROUP             4 E     ATP     0 **** ATP E 965
