@<TRIPOS>MOLECULE
4kq6_DLZ_1_ligand
   41    42     1     0     0
SMALL
NO_CHARGES


@<TRIPOS>ATOM
     1 C7           2.7940    10.4610    74.1280 C.3          1 DLZ204   0.0000
     2 C7A          4.2660    10.7680    74.0840 C.2          1 DLZ204   0.0000
     3 C5A          5.2630     9.9440    74.8220 C.2          1 DLZ204   0.0000
     4 C6           4.8970     8.7410    75.6680 C.3          1 DLZ204   0.0000
     5 N5           6.5570    10.2720    74.7280 N.2          1 DLZ204   0.0000
     6 C4A          6.9310    11.3500    74.0050 C.2          1 DLZ204   0.0000
     7 C4           8.3580    11.7510    73.9260 C.2          1 DLZ204   0.0000
     8 O4           9.2590    11.0830    74.5210 O.2          1 DLZ204   0.0000
     9 N3           8.6400    12.8430    73.1770 N.pl3        1 DLZ204   0.0000
    10 C2           7.6860    13.5590    72.5330 C.2          1 DLZ204   0.0000
    11 O2           8.0770    14.4860    71.8900 O.2          1 DLZ204   0.0000
    12 N1           6.3730    13.2560    72.5550 N.2          1 DLZ204   0.0000
    13 C8           5.9320    12.1770    73.2640 C.2          1 DLZ204   0.0000
    14 N8           4.6450    11.8120    73.3540 N.pl3        1 DLZ204   0.0000
    15 C1'          3.5980    12.5730    72.7190 C.3          1 DLZ204   0.0000
    16 C2'          3.1910    12.0820    71.3340 C.3          1 DLZ204   0.0000
    17 O2'          4.2760    12.4380    70.4860 O.3          1 DLZ204   0.0000
    18 C3'          1.7890    12.6550    70.9240 C.3          1 DLZ204   0.0000
    19 O3'          1.5680    14.0230    71.3930 O.3          1 DLZ204   0.0000
    20 C4'          0.5770    11.9550    71.5710 C.3          1 DLZ204   0.0000
    21 O4'          0.6200    10.5040    71.5550 O.3          1 DLZ204   0.0000
    22 C5'         -0.6960    12.5410    70.9580 C.3          1 DLZ204   0.0000
    23 O5'         -0.7670    12.3420    69.5200 O.3          1 DLZ204   0.0000
    24 H1           2.2979    11.1267    73.5706 H            1 DLZ204   0.0000
    25 H2           2.6345     9.5412    73.7696 H            1 DLZ204   0.0000
    26 H3           2.4712    10.5111    75.0731 H            1 DLZ204   0.0000
    27 H4           5.7264     8.3479    76.0650 H            1 DLZ204   0.0000
    28 H5           4.2787     9.0246    76.4010 H            1 DLZ204   0.0000
    29 H6           4.4444     8.0567    75.0963 H            1 DLZ204   0.0000
    30 H7           9.5932    13.1339    73.0953 H            1 DLZ204   0.0000
    31 H1'1         3.9111    13.5188    72.6328 H            1 DLZ204   0.0000
    32 H1'2         2.7909    12.5414    73.3085 H            1 DLZ204   0.0000
    33 H2'          3.1272    11.0844    71.3605 H            1 DLZ204   0.0000
    34 H11          4.9822    12.8984    71.0238 H            1 DLZ204   0.0000
    35 H3'          1.6967    12.6262    69.9287 H            1 DLZ204   0.0000
    36 H13          1.4109    14.6230    70.6086 H            1 DLZ204   0.0000
    37 H4'          0.5763    12.2259    72.5336 H            1 DLZ204   0.0000
    38 H15         -0.1692    10.1527    71.0513 H            1 DLZ204   0.0000
    39 H5'1        -0.7199    13.5227    71.1470 H            1 DLZ204   0.0000
    40 H5'2        -1.4875    12.1006    71.3817 H            1 DLZ204   0.0000
    41 H5'         -0.3401    13.1174    69.0547 H            1 DLZ204   0.0000
@<TRIPOS>BOND
     1    1    2       1
     2    2    3       2
     3    2   14       1
     4    3    4       1
     5    3    5       1
     6    5    6       2
     7    6    7       1
     8    6   13       1
     9    7    8       2
    10    7    9       1
    11    9   10       1
    12   10   11       2
    13   10   12       1
    14   12   13       2
    15   13   14       1
    16   14   15       1
    17   15   16       1
    18   16   17       1
    19   16   18       1
    20   18   19       1
    21   18   20       1
    22   20   21       1
    23   20   22       1
    24   22   23       1
    25    1   24       1
    26    1   25       1
    27    1   26       1
    28    4   27       1
    29    4   28       1
    30    4   29       1
    31    9   30       1
    32   15   31       1
    33   15   32       1
    34   16   33       1
    35   17   34       1
    36   18   35       1
    37   19   36       1
    38   20   37       1
    39   21   38       1
    40   22   39       1
    41   22   40       1
    42   23   41       1
@<TRIPOS>SUBSTRUCTURE
     1 DLZ204      1 GROUP             4 C     DLZ     0 **** DLZ C 204
