@<TRIPOS>MOLECULE
3fe1_ADP_3_ligand
   39    41     1     0     0
SMALL
NO_CHARGES


@<TRIPOS>ATOM
     1 PB          72.9630   -30.1790     5.2620 P.3          1 ADP386   0.0000
     2 O1B         73.9170   -29.4440     6.1670 O.co2        1 ADP386   0.0000
     3 O2B         73.3190   -31.6470     5.0660 O.co2        1 ADP386  -1.0000
     4 O3B         72.6850   -29.4790     3.9610 O.co2        1 ADP386  -1.0000
     5 PA          70.1340   -30.4940     5.9130 P.3          1 ADP386   0.0000
     6 O1A         69.4390   -30.6860     7.2490 O.co2        1 ADP386   0.0000
     7 O2A         69.9030   -31.5040     4.8450 O.co2        1 ADP386  -1.0000
     8 O3A         71.6730   -30.1430     6.2060 O.3          1 ADP386   0.0000
     9 O5'         69.6210   -29.1110     5.2400 O.3          1 ADP386   0.0000
    10 C5'         69.4660   -27.9560     6.0330 C.3          1 ADP386   0.0000
    11 C4'         68.7090   -26.9260     5.2300 C.3          1 ADP386   0.0000
    12 O4'         67.3670   -27.3840     5.0540 O.3          1 ADP386   0.0000
    13 C3'         68.6410   -25.6000     5.9790 C.3          1 ADP386   0.0000
    14 O3'         68.7360   -24.5340     5.0340 O.3          1 ADP386   0.0000
    15 C2'         67.2800   -25.6690     6.6490 C.3          1 ADP386   0.0000
    16 O2'         66.6810   -24.4060     6.9080 O.3          1 ADP386   0.0000
    17 C1'         66.5050   -26.3690     5.5640 C.3          1 ADP386   0.0000
    18 N9          65.2420   -26.9550     6.0210 N.pl3        1 ADP386   0.0000
    19 C8          65.0460   -27.8350     7.0360 C.2          1 ADP386   0.0000
    20 N7          63.7320   -28.1430     7.1170 N.2          1 ADP386   0.0000
    21 C5          63.0860   -27.4610     6.1360 C.ar         1 ADP386   0.0000
    22 C6          61.7020   -27.3000     5.6640 C.ar         1 ADP386   0.0000
    23 N6          60.6910   -27.9780     6.2670 N.pl3        1 ADP386   0.0000
    24 N1          61.4800   -26.4600     4.6040 N.ar         1 ADP386   0.0000
    25 C2          62.4700   -25.7820     4.0010 C.ar         1 ADP386   0.0000
    26 N3          63.7640   -25.8570     4.3860 N.ar         1 ADP386   0.0000
    27 C4          64.1020   -26.6680     5.4230 C.ar         1 ADP386   0.0000
    28 H5'1        70.3643   -27.5954     6.2839 H            1 ADP386   0.0000
    29 H5'2        68.9539   -28.1814     6.8618 H            1 ADP386   0.0000
    30 H4'         69.1464   -26.7954     4.3403 H            1 ADP386   0.0000
    31 H3'         69.3705   -25.5380     6.6602 H            1 ADP386   0.0000
    32 H5          69.1705   -23.7435     5.4657 H            1 ADP386   0.0000
    33 H2'         67.3169   -26.2253     7.4792 H            1 ADP386   0.0000
    34 H7          66.9559   -24.0864     7.8148 H            1 ADP386   0.0000
    35 H1'         66.3107   -25.7144     4.8334 H            1 ADP386   0.0000
    36 H9          65.7623   -28.1989     7.6313 H            1 ADP386   0.0000
    37 H10         59.7513   -27.8662     5.9436 H            1 ADP386   0.0000
    38 H11         60.8864   -28.5888     7.0343 H            1 ADP386   0.0000
    39 H12         62.2384   -25.1916     3.2278 H            1 ADP386   0.0000
@<TRIPOS>BOND
     1    1    2      ar
     2    1    3      ar
     3    1    4      ar
     4    1    8       1
     5    5    6      ar
     6    5    7      ar
     7    5    8       1
     8    5    9       1
     9    9   10       1
    10   10   11       1
    11   11   12       1
    12   11   13       1
    13   12   17       1
    14   13   14       1
    15   13   15       1
    16   15   16       1
    17   15   17       1
    18   17   18       1
    19   18   19       1
    20   18   27       1
    21   19   20       2
    22   20   21       1
    23   21   22      ar
    24   21   27      ar
    25   22   23       1
    26   22   24      ar
    27   24   25      ar
    28   25   26      ar
    29   26   27      ar
    30   25   39       1
    31   23   38       1
    32   23   37       1
    33   10   28       1
    34   10   29       1
    35   11   30       1
    36   13   31       1
    37   14   32       1
    38   15   33       1
    39   16   34       1
    40   17   35       1
    41   19   36       1
@<TRIPOS>SUBSTRUCTURE
     1 ADP386      1 GROUP             4 C     ADP     0 **** ADP C 386
