@<TRIPOS>MOLECULE
4f1t_H52_1_ligand
   44    46     1     0     0
SMALL
NO_CHARGES


@<TRIPOS>ATOM
     1 O1          -6.3160    19.7280   -16.7520 O.2          1 H521301   0.0000
     2 S5          -6.9640    19.2840   -17.8960 S.o2         1 H521301   0.0000
     3 O2          -8.2050    18.7290   -17.5950 O.2          1 H521301   0.0000
     4 N21         -7.3540    20.4640   -18.6480 N.3          1 H521301   0.0000
     5 C22         -6.4570    21.2490   -19.4150 C.3          1 H521301   0.0000
     6 C2M         -7.3880    21.8500   -20.4430 C.3          1 H521301   0.0000
     7 C23         -5.9640    22.2930   -18.4300 C.3          1 H521301   0.0000
     8 N24         -6.7130    23.5100   -18.6480 N.4          1 H521301   1.0000
     9 C25         -8.1240    23.3930   -18.9070 C.3          1 H521301   0.0000
    10 C26         -8.7090    22.3190   -18.0250 C.3          1 H521301   0.0000
    11 C27         -8.7120    20.9430   -18.6870 C.3          1 H521301   0.0000
    12 C5          -6.0640    18.3440   -18.7640 C.ar         1 H521301   0.0000
    13 C10         -6.1560    16.8450   -18.8020 C.ar         1 H521301   0.0000
    14 C4          -7.0820    15.9740   -18.0190 C.ar         1 H521301   0.0000
    15 CM          -8.0840    16.5010   -17.0470 C.3          1 H521301   0.0000
    16 C9          -5.2400    16.1420   -19.7140 C.ar         1 H521301   0.0000
    17 C8          -4.3480    16.8590   -20.4700 C.ar         1 H521301   0.0000
    18 C7          -4.3020    18.2390   -20.4000 C.ar         1 H521301   0.0000
    19 C6          -5.1380    18.9680   -19.5710 C.ar         1 H521301   0.0000
    20 C1          -5.2890    14.7720   -19.8000 C.ar         1 H521301   0.0000
    21 N2          -6.1360    14.0730   -19.0640 N.ar         1 H521301   0.0000
    22 C3          -7.0080    14.6110   -18.2170 C.ar         1 H521301   0.0000
    23 H1          -5.7169    20.7136   -19.8219 H            1 H521301   0.0000
    24 H2M1        -6.8670    22.4394   -21.0604 H            1 H521301   0.0000
    25 H2M2        -7.8219    21.1179   -20.9681 H            1 H521301   0.0000
    26 H2M3        -8.0910    22.3903   -19.9806 H            1 H521301   0.0000
    27 H5          -4.9899    22.4641   -18.5776 H            1 H521301   0.0000
    28 H6          -6.1077    21.9702   -17.4945 H            1 H521301   0.0000
    29 H7          -6.3035    23.9757   -19.4325 H            1 H521301   0.0000
    30 H8          -8.2679    23.1514   -19.8666 H            1 H521301   0.0000
    31 H9          -8.5722    24.2654   -18.7120 H            1 H521301   0.0000
    32 H10         -9.6515    22.5677   -17.8017 H            1 H521301   0.0000
    33 H11         -8.1697    22.2675   -17.1844 H            1 H521301   0.0000
    34 H12         -9.3121    20.3201   -18.1851 H            1 H521301   0.0000
    35 H13         -9.0248    21.0165   -19.6340 H            1 H521301   0.0000
    36 HM1         -8.5899    15.7386   -16.6435 H            1 H521301   0.0000
    37 HM2         -7.6133    17.0080   -16.3249 H            1 H521301   0.0000
    38 HM3         -8.7203    17.1095   -17.5211 H            1 H521301   0.0000
    39 H17         -3.7211    16.3760   -21.0814 H            1 H521301   0.0000
    40 H18         -3.6410    18.7285   -20.9687 H            1 H521301   0.0000
    41 H19         -5.0683    19.9655   -19.5579 H            1 H521301   0.0000
    42 H20         -4.6745    14.2960   -20.4291 H            1 H521301   0.0000
    43 H21         -7.6270    14.0114   -17.7097 H            1 H521301   0.0000
    44 H22         -6.6058    24.0765   -17.8309 H            1 H521301   0.0000
@<TRIPOS>BOND
     1    1    2       2
     2    2    3       2
     3    2    4       1
     4    2   12       1
     5    4    5       1
     6    4   11       1
     7    5    6       1
     8    5    7       1
     9    7    8       1
    10    8    9       1
    11    9   10       1
    12   10   11       1
    13   12   13      ar
    14   12   19      ar
    15   13   14      ar
    16   13   16      ar
    17   14   15       1
    18   14   22      ar
    19   16   17      ar
    20   16   20      ar
    21   17   18      ar
    22   18   19      ar
    23   20   21      ar
    24   21   22      ar
    25    5   23       1
    26    6   24       1
    27    6   25       1
    28    6   26       1
    29    7   27       1
    30    7   28       1
    31    8   29       1
    32    9   30       1
    33    9   31       1
    34   10   32       1
    35   10   33       1
    36   11   34       1
    37   11   35       1
    38   15   36       1
    39   15   37       1
    40   15   38       1
    41   17   39       1
    42   18   40       1
    43   19   41       1
    44   20   42       1
    45   22   43       1
    46    8   44       1
@<TRIPOS>SUBSTRUCTURE
     1 H521301     1 GROUP             4 A     H52     0 **** H52 A1301
