@<TRIPOS>MOLECULE
4ntm_2K8_2_ligand
   23    24     1     0     0
SMALL
NO_CHARGES


@<TRIPOS>ATOM
     1 O6A        -43.0250    17.9640    -9.0520 O.co2        1 2K8202   0.0000
     2 C6A        -42.7000    17.5060   -10.1220 C.2          1 2K8202   0.0000
     3 O6B        -42.5600    18.2030   -11.1890 O.co2        1 2K8202  -1.0000
     4 C6         -42.4070    16.0260   -10.3130 C.3          1 2K8202   0.0000
     5 N5         -42.0980    15.7260   -11.7070 N.pl3        1 2K8202   0.0000
     6 C4A        -41.9720    14.4010   -11.9740 C.2          1 2K8202   0.0000
     7 C7         -43.6430    15.2290    -9.9170 C.3          1 2K8202   0.0000
     8 N8         -43.3610    13.8160   -10.1390 N.pl3        1 2K8202   0.0000
     9 C8A        -42.5620    13.4430   -11.1590 C.2          1 2K8202   0.0000
    10 N1         -42.4770    12.1020   -11.2860 N.2          1 2K8202   0.0000
    11 C2         -41.7450    11.7220   -12.3290 C.2          1 2K8202   0.0000
    12 N2         -41.5210    10.4220   -12.5290 N.pl3        1 2K8202   0.0000
    13 N3         -41.1510    12.6030   -13.1970 N.pl3        1 2K8202   0.0000
    14 C4         -41.2060    13.9800   -13.0940 C.2          1 2K8202   0.0000
    15 O4         -40.6420    14.6920   -13.9230 O.2          1 2K8202   0.0000
    16 H1         -41.6365    15.7594    -9.7340 H            1 2K8202   0.0000
    17 H2         -41.9886    16.4342   -12.4045 H            1 2K8202   0.0000
    18 H3         -44.4220    15.5112   -10.4769 H            1 2K8202   0.0000
    19 H4         -43.8522    15.3853    -8.9517 H            1 2K8202   0.0000
    20 H5         -43.7593    13.1248    -9.5360 H            1 2K8202   0.0000
    21 H6         -40.9721    10.1235   -13.3098 H            1 2K8202   0.0000
    22 H7         -41.9020     9.7461   -11.8981 H            1 2K8202   0.0000
    23 H8         -40.6380    12.2185   -13.9644 H            1 2K8202   0.0000
@<TRIPOS>BOND
     1    1    2      ar
     2    2    3      ar
     3    2    4       1
     4    4    5       1
     5    4    7       1
     6    5    6       1
     7    6    9       2
     8    6   14       1
     9    7    8       1
    10    8    9       1
    11    9   10       1
    12   10   11       2
    13   11   12       1
    14   11   13       1
    15   13   14       1
    16   14   15       2
    17   13   23       1
    18    4   16       1
    19    5   17       1
    20    7   18       1
    21    7   19       1
    22    8   20       1
    23   12   21       1
    24   12   22       1
@<TRIPOS>SUBSTRUCTURE
     1 2K8202      1 GROUP             4 B     2K8     0 **** 2K8 B 202
