@<TRIPOS>MOLECULE
1zs0_EIN_1_ligand
   46    47     1     0     0
SMALL
NO_CHARGES


@<TRIPOS>ATOM
     1 C14          9.3810    20.2040    12.2520 C.ar         1 EIN994   0.0000
     2 C15          9.8320    18.8310    12.5710 C.ar         1 EIN994   0.0000
     3 C16          9.1750    17.6940    11.9930 C.ar         1 EIN994   0.0000
     4 C17          8.0190    17.8930    11.0560 C.ar         1 EIN994   0.0000
     5 C1           7.5750    19.2460    10.7490 C.ar         1 EIN994   0.0000
     6 C2           8.2470    20.3860    11.3380 C.ar         1 EIN994   0.0000
     7 O1           7.3090    16.7590    10.4310 O.3          1 EIN994   0.0000
     8 C3           7.9010    15.4780    10.7120 C.3          1 EIN994   0.0000
     9 C4          10.0730    21.3840    12.8490 C.ar         1 EIN994   0.0000
    10 C5          11.5340    21.3730    13.0190 C.ar         1 EIN994   0.0000
    11 C6          12.2160    22.4970    13.5860 C.ar         1 EIN994   0.0000
    12 C7          11.4830    23.6710    13.9950 C.ar         1 EIN994   0.0000
    13 C8          10.0240    23.7240    13.8420 C.ar         1 EIN994   0.0000
    14 C9           9.3220    22.5910    13.2700 C.ar         1 EIN994   0.0000
    15 S1          12.3610    25.0310    14.6790 S.o2         1 EIN994   0.0000
    16 O2          11.7340    26.3390    14.2180 O.2          1 EIN994   0.0000
    17 O3          13.8480    24.9630    14.2270 O.2          1 EIN994   0.0000
    18 N1          12.2630    24.9070    16.3990 N.3          1 EIN994   0.0000
    19 C10         11.2240    25.4890    17.2430 C.3          1 EIN994   0.0000
    20 C11         11.8600    26.2510    18.4860 C.3          1 EIN994   0.0000
    21 C12         10.8970    27.2370    19.2020 C.3          1 EIN994   0.0000
    22 C13         12.9090    27.2370    18.0080 C.3          1 EIN994   0.0000
    23 P1          10.1710    24.1750    17.8760 P.3          1 EIN994   0.0000
    24 O4           8.5150    24.5160    17.7600 O.co2        1 EIN994   0.0000
    25 O5          10.3310    23.7220    19.5260 O.co2        1 EIN994  -1.0000
    26 O6          10.2490    22.7860    17.0030 O.co2        1 EIN994  -1.0000
    27 H1          10.6015    18.6945    13.1949 H            1 EIN994   0.0000
    28 H2           9.4868    16.7699    12.2140 H            1 EIN994   0.0000
    29 H3           6.8033    19.3883    10.1292 H            1 EIN994   0.0000
    30 H4           7.9339    21.3101    11.1188 H            1 EIN994   0.0000
    31 H5           7.3719    14.7599    10.2599 H            1 EIN994   0.0000
    32 H6           8.8413    15.4635    10.3719 H            1 EIN994   0.0000
    33 H7           7.9013    15.3203    11.6995 H            1 EIN994   0.0000
    34 H8          12.0578    20.5700    12.7348 H            1 EIN994   0.0000
    35 H9          13.2091    22.4683    13.6996 H            1 EIN994   0.0000
    36 H10          9.5172    24.5364    14.1304 H            1 EIN994   0.0000
    37 H11          8.3287    22.6240    13.1593 H            1 EIN994   0.0000
    38 H12         12.2369    23.9258    16.5901 H            1 EIN994   0.0000
    39 H13         10.6745    26.1278    16.7045 H            1 EIN994   0.0000
    40 H14         12.2530    25.6020    19.1375 H            1 EIN994   0.0000
    41 H15         11.3727    27.6712    19.9669 H            1 EIN994   0.0000
    42 H16         10.5963    27.9380    18.5553 H            1 EIN994   0.0000
    43 H17         10.1019    26.7366    19.5448 H            1 EIN994   0.0000
    44 H18         13.3036    27.7115    18.7949 H            1 EIN994   0.0000
    45 H19         13.6299    26.7458    17.5190 H            1 EIN994   0.0000
    46 H20         12.4850    27.9037    17.3950 H            1 EIN994   0.0000
@<TRIPOS>BOND
     1    1    2      ar
     2    1    6      ar
     3    1    9       1
     4    2    3      ar
     5    3    4      ar
     6    4    5      ar
     7    4    7       1
     8    5    6      ar
     9    7    8       1
    10    9   10      ar
    11    9   14      ar
    12   10   11      ar
    13   11   12      ar
    14   12   13      ar
    15   12   15       1
    16   13   14      ar
    17   15   16       2
    18   15   17       2
    19   15   18       1
    20   18   19       1
    21   19   20       1
    22   19   23       1
    23   20   21       1
    24   20   22       1
    25   23   24      ar
    26   23   25      ar
    27   23   26      ar
    28    2   27       1
    29    3   28       1
    30    5   29       1
    31    6   30       1
    32    8   31       1
    33    8   32       1
    34    8   33       1
    35   10   34       1
    36   11   35       1
    37   13   36       1
    38   14   37       1
    39   18   38       1
    40   19   39       1
    41   20   40       1
    42   21   41       1
    43   21   42       1
    44   21   43       1
    45   22   44       1
    46   22   45       1
    47   22   46       1
@<TRIPOS>SUBSTRUCTURE
     1 EIN994      1 GROUP             4 A     EIN     0 **** EIN A 994
