@<TRIPOS>MOLECULE
4h2i_A12_1_ligand
   41    43     1     0     0
SMALL
NO_CHARGES


@<TRIPOS>ATOM
     1 PB         -17.1280    19.4690   -29.0090 P.3          1 A12603   0.0000
     2 O1B        -18.2110    20.3880   -28.7680 O.co2        1 A12603   0.0000
     3 O2B        -16.4730    20.0350   -30.3820 O.co2        1 A12603  -1.0000
     4 O3B        -15.8760    19.5540   -28.1180 O.co2        1 A12603  -1.0000
     5 PA         -18.7420    17.3850   -30.5830 P.3          1 A12603   0.0000
     6 O1A        -20.0110    18.0630   -30.3280 O.co2        1 A12603   0.0000
     7 O2A        -19.0530    15.8230   -30.6910 O.co2        1 A12603  -1.0000
     8 C3A        -17.4670    17.6790   -29.2660 C.3          1 A12603   0.0000
     9 O5'        -17.9940    18.0460   -31.7950 O.3          1 A12603   0.0000
    10 C5'        -16.7990    17.4010   -32.2840 C.3          1 A12603   0.0000
    11 C4'        -16.6810    17.5730   -33.8370 C.3          1 A12603   0.0000
    12 O4'        -16.8100    18.9640   -34.1540 O.3          1 A12603   0.0000
    13 C3'        -15.2320    17.3310   -34.2550 C.3          1 A12603   0.0000
    14 O3'        -15.2180    15.9150   -34.4550 O.3          1 A12603   0.0000
    15 C2'        -14.9890    18.1820   -35.5230 C.3          1 A12603   0.0000
    16 O2'        -15.6230    17.4420   -36.6200 O.3          1 A12603   0.0000
    17 C1'        -15.8490    19.3710   -35.1240 C.3          1 A12603   0.0000
    18 N9         -14.9820    20.3820   -34.6140 N.pl3        1 A12603   0.0000
    19 C8         -14.6150    20.6080   -33.3260 C.2          1 A12603   0.0000
    20 N7         -13.7570    21.6650   -33.2640 N.2          1 A12603   0.0000
    21 C5         -13.6100    22.0980   -34.5460 C.ar         1 A12603   0.0000
    22 C6         -12.8250    23.1330   -35.2210 C.ar         1 A12603   0.0000
    23 N6         -12.0610    23.9590   -34.4510 N.pl3        1 A12603   0.0000
    24 N1         -12.9190    23.2350   -36.5770 N.ar         1 A12603   0.0000
    25 C2         -13.7360    22.4700   -37.3000 C.ar         1 A12603   0.0000
    26 N3         -14.4530    21.4500   -36.7970 N.ar         1 A12603   0.0000
    27 C4         -14.4220    21.2530   -35.4370 C.ar         1 A12603   0.0000
    28 H3A1       -17.7961    17.2875   -28.4067 H            1 A12603   0.0000
    29 H3A2       -16.6169    17.2261   -29.5347 H            1 A12603   0.0000
    30 H5'1       -16.8365    16.4266   -32.0624 H            1 A12603   0.0000
    31 H5'2       -15.9998    17.8121   -31.8454 H            1 A12603   0.0000
    32 H4'        -17.3289    17.0005   -34.3395 H            1 A12603   0.0000
    33 H3'        -14.6021    17.5935   -33.5240 H            1 A12603   0.0000
    34 H7         -14.3029    15.6273   -34.7377 H            1 A12603   0.0000
    35 H2'        -14.0286    18.4087   -35.6848 H            1 A12603   0.0000
    36 H9         -14.9598    16.8122   -37.0243 H            1 A12603   0.0000
    37 H1'        -16.3236    19.7205   -35.9318 H            1 A12603   0.0000
    38 H11        -14.9283    20.0768   -32.5388 H            1 A12603   0.0000
    39 H12        -11.5125    24.6768   -34.8799 H            1 A12603   0.0000
    40 H13        -12.0492    23.8471   -33.4574 H            1 A12603   0.0000
    41 H14        -13.8211    22.6666   -38.2768 H            1 A12603   0.0000
@<TRIPOS>BOND
     1    1    2      ar
     2    1    3      ar
     3    1    4      ar
     4    1    8       1
     5    5    6      ar
     6    5    7      ar
     7    5    8       1
     8    5    9       1
     9    9   10       1
    10   10   11       1
    11   11   12       1
    12   11   13       1
    13   12   17       1
    14   13   14       1
    15   13   15       1
    16   15   16       1
    17   15   17       1
    18   17   18       1
    19   18   19       1
    20   18   27       1
    21   19   20       2
    22   20   21       1
    23   21   22      ar
    24   21   27      ar
    25   22   23       1
    26   22   24      ar
    27   24   25      ar
    28   25   26      ar
    29   26   27      ar
    30   25   41       1
    31   23   40       1
    32   23   39       1
    33    8   28       1
    34    8   29       1
    35   10   30       1
    36   10   31       1
    37   11   32       1
    38   13   33       1
    39   14   34       1
    40   15   35       1
    41   16   36       1
    42   17   37       1
    43   19   38       1
@<TRIPOS>SUBSTRUCTURE
     1 A12603      1 GROUP             4 A     A12     0 **** A12 A 603
