@<TRIPOS>MOLECULE
1bzm_MZM_1_ligand
   21    21     1     0     0
SMALL
NO_CHARGES


@<TRIPOS>ATOM
     1 N1          36.3600    17.8050   -15.7860 N.3          1 MZM262  -1.0000
     2 S1          34.9080    17.3530   -16.1370 S.o2         1 MZM262   0.0000
     3 O1          34.6790    16.0280   -15.6410 O.2          1 MZM262   0.0000
     4 O2          34.0480    18.4260   -15.8230 O.2          1 MZM262   0.0000
     5 C1          34.8760    17.1320   -17.9080 C.2          1 MZM262   0.0000
     6 S2          34.2110    15.7370   -18.6070 S.3          1 MZM262   0.0000
     7 C2          34.3950    16.5430   -20.0990 C.2          1 MZM262   0.0000
     8 N2          34.9250    17.7320   -20.0140 N.pl3        1 MZM262   0.0000
     9 C5          35.2870    18.6210   -21.1220 C.3          1 MZM262   0.0000
    10 N3          35.1730    18.1010   -18.7010 N.2          1 MZM262   0.0000
    11 N4          33.5060    16.0660   -21.0220 N.2          1 MZM262   0.0000
    12 C3          32.7970    15.0930   -21.1080 C.2          1 MZM262   0.0000
    13 O3          32.7640    14.2200   -20.2590 O.2          1 MZM262   0.0000
    14 C4          31.9350    14.8680   -22.2870 C.3          1 MZM262   0.0000
    15 H1          36.3811    18.7980   -15.6697 H            1 MZM262   0.0000
    16 H2          35.6735    19.4681   -20.7571 H            1 MZM262   0.0000
    17 H3          35.9633    18.1697   -21.7042 H            1 MZM262   0.0000
    18 H4          34.4712    18.8317   -21.6605 H            1 MZM262   0.0000
    19 H5          31.4279    14.0139   -22.1711 H            1 MZM262   0.0000
    20 H6          31.2915    15.6278   -22.3793 H            1 MZM262   0.0000
    21 H7          32.5023    14.8100   -23.1085 H            1 MZM262   0.0000
@<TRIPOS>BOND
     1    1    2       1
     2    2    3       2
     3    2    4       2
     4    2    5       1
     5    5    6       1
     6    5   10       2
     7    6    7       1
     8    7    8       1
     9    7   11       2
    10    8    9       1
    11    8   10       1
    12   11   12       1
    13   12   13       2
    14   12   14       1
    15   14   21       1
    16    1   15       1
    17    9   16       1
    18    9   17       1
    19    9   18       1
    20   14   19       1
    21   14   20       1
@<TRIPOS>SUBSTRUCTURE
     1 MZM262      1 GROUP             4 A     MZM     0 **** MZM A 262
