@<TRIPOS>MOLECULE
4rnw_FMN_1_ligand
   50    52     1     0     0
SMALL
NO_CHARGES


@<TRIPOS>ATOM
     1 N1           4.9910     2.0150     0.1900 N.2          1 FMN401   0.0000
     2 C2           6.0660     2.7750    -0.2100 C.2          1 FMN401   0.0000
     3 O2           7.0640     2.8920     0.4960 O.2          1 FMN401   0.0000
     4 N3           6.0250     3.4460    -1.4090 N.pl3        1 FMN401   0.0000
     5 C4           4.9550     3.3510    -2.2420 C.2          1 FMN401   0.0000
     6 O4           4.9720     3.9830    -3.3270 O.2          1 FMN401   0.0000
     7 C4A          3.8650     2.5760    -1.8520 C.2          1 FMN401   0.0000
     8 N5           2.7770     2.4020    -2.6690 N.2          1 FMN401   0.0000
     9 C5A          1.6710     1.6940    -2.2410 C.ar         1 FMN401   0.0000
    10 C6           0.5630     1.5850    -3.0780 C.ar         1 FMN401   0.0000
    11 C7          -0.5420     0.8540    -2.6630 C.ar         1 FMN401   0.0000
    12 C7M         -1.7400     0.7390    -3.5560 C.3          1 FMN401   0.0000
    13 C8          -0.5130     0.2250    -1.4320 C.ar         1 FMN401   0.0000
    14 C8M         -1.7160    -0.5600    -0.9890 C.3          1 FMN401   0.0000
    15 C9           0.5840     0.3400    -0.5850 C.ar         1 FMN401   0.0000
    16 C9A          1.6950     1.0570    -1.0040 C.ar         1 FMN401   0.0000
    17 N10          2.8190     1.1620    -0.2040 N.pl3        1 FMN401   0.0000
    18 C10          3.8870     1.9220    -0.6260 C.2          1 FMN401   0.0000
    19 C1'          2.8710     0.5830     1.1710 C.3          1 FMN401   0.0000
    20 C2'          2.1260     1.6480     2.0340 C.3          1 FMN401   0.0000
    21 O2'          2.8850     2.8450     2.1900 O.3          1 FMN401   0.0000
    22 C3'          1.7350     1.2470     3.4620 C.3          1 FMN401   0.0000
    23 O3'          2.8620     0.7240     4.1460 O.3          1 FMN401   0.0000
    24 C4'          0.5780     0.2480     3.5330 C.3          1 FMN401   0.0000
    25 O4'         -0.4760     0.7040     2.6960 O.3          1 FMN401   0.0000
    26 C5'          0.1300     0.1430     5.0010 C.3          1 FMN401   0.0000
    27 O5'         -0.8390    -0.8730     5.1890 O.3          1 FMN401   0.0000
    28 P           -2.4170    -0.5020     5.1630 P.3          1 FMN401   0.0000
    29 O1P         -2.8000    -0.4160     3.6960 O.co2        1 FMN401   0.0000
    30 O2P         -2.6800     0.7530     5.9170 O.co2        1 FMN401  -1.0000
    31 O3P         -3.0800    -1.6880     5.8480 O.co2        1 FMN401  -1.0000
    32 H1           6.8011     4.0179    -1.6749 H            1 FMN401   0.0000
    33 H2           0.5634     2.0309    -3.9731 H            1 FMN401   0.0000
    34 H7M1        -2.4386     0.1824    -3.1065 H            1 FMN401   0.0000
    35 H7M2        -2.1075     1.6507    -3.7398 H            1 FMN401   0.0000
    36 H7M3        -1.4733     0.3072    -4.4176 H            1 FMN401   0.0000
    37 H8M1        -1.5438    -0.9522    -0.0854 H            1 FMN401   0.0000
    38 H8M2        -2.5108     0.0452    -0.9437 H            1 FMN401   0.0000
    39 H8M3        -1.8937    -1.2952    -1.6432 H            1 FMN401   0.0000
    40 H9           0.5720    -0.0902     0.3177 H            1 FMN401   0.0000
    41 H1'1         3.8163     0.4706     1.4773 H            1 FMN401   0.0000
    42 H1'2         2.4019    -0.2994     1.2066 H            1 FMN401   0.0000
    43 H2'          1.2845     1.8888     1.5504 H            1 FMN401   0.0000
    44 H13          2.6654     3.4781     1.4477 H            1 FMN401   0.0000
    45 H3'          1.4483     2.0765     3.9414 H            1 FMN401   0.0000
    46 H15          2.9089    -0.2647     4.0039 H            1 FMN401   0.0000
    47 H4'          0.8913    -0.6471     3.2158 H            1 FMN401   0.0000
    48 H17         -1.3526     0.3969     3.0666 H            1 FMN401   0.0000
    49 H5'1        -0.2619     1.0189     5.2823 H            1 FMN401   0.0000
    50 H5'2         0.9276    -0.0628     5.5680 H            1 FMN401   0.0000
@<TRIPOS>BOND
     1    1    2       1
     2    1   18       2
     3    2    3       2
     4    2    4       1
     5    4    5       1
     6    5    6       2
     7    5    7       1
     8    7    8       2
     9    7   18       1
    10    8    9       1
    11    9   10      ar
    12    9   16      ar
    13   10   11      ar
    14   11   12       1
    15   11   13      ar
    16   13   14       1
    17   13   15      ar
    18   15   16      ar
    19   16   17       1
    20   17   18       1
    21   17   19       1
    22   19   20       1
    23   20   21       1
    24   20   22       1
    25   22   23       1
    26   22   24       1
    27   24   25       1
    28   24   26       1
    29   26   27       1
    30   27   28       1
    31   28   29      ar
    32   28   30      ar
    33   28   31      ar
    34    4   32       1
    35   10   33       1
    36   12   34       1
    37   12   35       1
    38   12   36       1
    39   14   37       1
    40   14   38       1
    41   14   39       1
    42   15   40       1
    43   19   41       1
    44   19   42       1
    45   20   43       1
    46   21   44       1
    47   22   45       1
    48   23   46       1
    49   24   47       1
    50   25   48       1
    51   26   49       1
    52   26   50       1
@<TRIPOS>SUBSTRUCTURE
     1 FMN401      1 GROUP             4 A     FMN     0 **** FMN A 401
