@<TRIPOS>MOLECULE
4wqm_FAD_1_ligand
   84    89     1     0     0
SMALL
NO_CHARGES


@<TRIPOS>ATOM
     1 PA         -78.1610   104.0990    16.8500 P.3          1 FAD402   0.0000
     2 O1A        -78.6330   103.7730    15.3970 O.co2        1 FAD402   0.0000
     3 O2A        -77.4620   102.9120    17.4810 O.co2        1 FAD402  -1.0000
     4 O5B        -77.2170   105.3620    16.8240 O.3          1 FAD402   0.0000
     5 C5B        -77.8430   106.6230    16.4480 C.3          1 FAD402   0.0000
     6 C4B        -76.9720   107.3350    15.3590 C.3          1 FAD402   0.0000
     7 O4B        -75.7520   107.4730    15.8040 O.3          1 FAD402   0.0000
     8 C3B        -76.8890   106.4320    14.1280 C.3          1 FAD402   0.0000
     9 O3B        -77.0130   107.1430    12.9750 O.3          1 FAD402   0.0000
    10 C2B        -75.4650   105.8070    14.2160 C.3          1 FAD402   0.0000
    11 O2B        -74.9890   105.4550    12.8620 O.3          1 FAD402   0.0000
    12 C1B        -74.8050   106.7860    14.7040 C.3          1 FAD402   0.0000
    13 N9A        -73.5600   106.3820    15.2580 N.pl3        1 FAD402   0.0000
    14 C8A        -72.9210   105.2060    15.0870 C.2          1 FAD402   0.0000
    15 N7A        -71.7530   105.2570    15.7840 N.2          1 FAD402   0.0000
    16 C5A        -71.6740   106.4830    16.3770 C.ar         1 FAD402   0.0000
    17 C6A        -70.7080   107.0610    17.1870 C.ar         1 FAD402   0.0000
    18 N6A        -69.4580   106.5490    17.6770 N.pl3        1 FAD402   0.0000
    19 N1A        -70.8860   108.3020    17.6440 N.ar         1 FAD402   0.0000
    20 C2A        -71.9940   108.9980    17.3250 C.ar         1 FAD402   0.0000
    21 N3A        -72.9540   108.4310    16.5250 N.ar         1 FAD402   0.0000
    22 C4A        -72.7790   107.1790    16.0580 C.ar         1 FAD402   0.0000
    23 N1         -83.8400   111.5670    19.8560 N.2          1 FAD402   0.0000
    24 C2         -84.9550   111.4980    20.7540 C.2          1 FAD402   0.0000
    25 O2         -85.4960   110.4410    20.9010 O.2          1 FAD402   0.0000
    26 N3         -85.4120   112.6960    21.4470 N.pl3        1 FAD402   0.0000
    27 C4         -84.7790   113.9480    21.2620 C.2          1 FAD402   0.0000
    28 O4         -85.1410   114.9530    21.8570 O.2          1 FAD402   0.0000
    29 C4X        -83.6360   113.9950    20.3370 C.2          1 FAD402   0.0000
    30 N5         -82.9550   115.2360    20.1190 N.2          1 FAD402   0.0000
    31 C5X        -81.8470   115.2720    19.1970 C.ar         1 FAD402   0.0000
    32 C6         -81.1870   116.4870    18.9440 C.ar         1 FAD402   0.0000
    33 C7         -80.0980   116.4880    18.0450 C.ar         1 FAD402   0.0000
    34 C7M        -79.5140   117.8590    17.9150 C.3          1 FAD402   0.0000
    35 C8         -79.6870   115.3250    17.4190 C.ar         1 FAD402   0.0000
    36 C8M        -78.4710   115.4250    16.4510 C.3          1 FAD402   0.0000
    37 C9         -80.3460   114.1180    17.6570 C.ar         1 FAD402   0.0000
    38 C9A        -81.4230   114.1050    18.5530 C.ar         1 FAD402   0.0000
    39 N10        -82.1190   112.8190    18.7810 N.pl3        1 FAD402   0.0000
    40 C10        -83.1890   112.8010    19.6550 C.2          1 FAD402   0.0000
    41 C1'        -81.6700   111.5780    18.1300 C.3          1 FAD402   0.0000
    42 C2'        -80.7330   110.8690    19.1660 C.3          1 FAD402   0.0000
    43 O2'        -79.5750   111.6470    19.4360 O.3          1 FAD402   0.0000
    44 C3'        -80.2720   109.4590    18.7170 C.3          1 FAD402   0.0000
    45 O3'        -79.6680   109.5440    17.4570 O.3          1 FAD402   0.0000
    46 C4'        -81.4390   108.4840    18.6940 C.3          1 FAD402   0.0000
    47 O4'        -81.9380   108.3060    19.9730 O.3          1 FAD402   0.0000
    48 C5'        -80.9930   107.1140    18.1820 C.3          1 FAD402   0.0000
    49 O5'        -79.7650   106.6850    18.8850 O.3          1 FAD402   0.0000
    50 P          -79.5310   105.1420    19.1090 P.3          1 FAD402   0.0000
    51 O1P        -78.2720   104.9700    19.8180 O.co2        1 FAD402   0.0000
    52 O2P        -80.7020   104.5500    19.8150 O.co2        1 FAD402  -1.0000
    53 O3P        -79.4790   104.5150    17.7130 O.3          1 FAD402   0.0000
    54 H5B1       -77.9165   107.2116    17.2531 H            1 FAD402   0.0000
    55 H5B2       -78.7559   106.4452    16.0806 H            1 FAD402   0.0000
    56 H4B        -77.3631   108.2236    15.1194 H            1 FAD402   0.0000
    57 H3B        -77.5866   105.7169    14.1729 H            1 FAD402   0.0000
    58 H5         -76.1894   107.0248    12.4203 H            1 FAD402   0.0000
    59 H2B        -75.4500   105.0151    14.8265 H            1 FAD402   0.0000
    60 H7         -73.9920   105.5261    12.8302 H            1 FAD402   0.0000
    61 H1B        -74.6302   107.4480    13.9751 H            1 FAD402   0.0000
    62 H8A        -73.2481   104.4328    14.5437 H            1 FAD402   0.0000
    63 H6A1       -68.8791   107.1180    18.2610 H            1 FAD402   0.0000
    64 H6A2       -69.1670   105.6237    17.4340 H            1 FAD402   0.0000
    65 H2A        -72.1171   109.9281    17.6712 H            1 FAD402   0.0000
    66 H13        -86.1925   112.6316    22.0688 H            1 FAD402   0.0000
    67 H14        -81.4820   117.3317    19.3906 H            1 FAD402   0.0000
    68 H7M1       -78.7462   117.8349    17.2748 H            1 FAD402   0.0000
    69 H7M2       -80.2127   118.4880    17.5741 H            1 FAD402   0.0000
    70 H7M3       -79.1927   118.1706    18.8092 H            1 FAD402   0.0000
    71 H8M1       -78.2760   114.5227    16.0665 H            1 FAD402   0.0000
    72 H8M2       -78.6852   116.0633    15.7116 H            1 FAD402   0.0000
    73 H8M3       -77.6711   115.7532    16.9534 H            1 FAD402   0.0000
    74 H21        -80.0552   113.2790    17.1971 H            1 FAD402   0.0000
    75 H1'1       -81.1671   111.7868    17.2912 H            1 FAD402   0.0000
    76 H1'2       -82.4532   110.9954    17.9128 H            1 FAD402   0.0000
    77 H2'        -81.2414   110.7681    20.0212 H            1 FAD402   0.0000
    78 H25        -79.7572   112.2603    20.2046 H            1 FAD402   0.0000
    79 H3'        -79.5935   109.1248    19.3712 H            1 FAD402   0.0000
    80 H27        -79.3708   108.6341    17.1678 H            1 FAD402   0.0000
    81 H4'        -82.1607   108.8422    18.1017 H            1 FAD402   0.0000
    82 H29        -82.8980   108.5849    19.9981 H            1 FAD402   0.0000
    83 H5'1       -80.8097   107.1711    17.2006 H            1 FAD402   0.0000
    84 H5'2       -81.7191   106.4466    18.3471 H            1 FAD402   0.0000
@<TRIPOS>BOND
     1    1    2      ar
     2    1    3      ar
     3    1    4       1
     4    1   53       1
     5    4    5       1
     6    5    6       1
     7    6    7       1
     8    6    8       1
     9    7   12       1
    10    8    9       1
    11    8   10       1
    12   10   11       1
    13   10   12       1
    14   12   13       1
    15   13   14       1
    16   13   22       1
    17   14   15       2
    18   15   16       1
    19   16   17      ar
    20   16   22      ar
    21   17   18       1
    22   17   19      ar
    23   19   20      ar
    24   20   21      ar
    25   21   22      ar
    26   23   24       1
    27   23   40       2
    28   24   25       2
    29   24   26       1
    30   26   27       1
    31   27   28       2
    32   27   29       1
    33   29   30       2
    34   29   40       1
    35   30   31       1
    36   31   32      ar
    37   31   38      ar
    38   32   33      ar
    39   33   34       1
    40   33   35      ar
    41   35   36       1
    42   35   37      ar
    43   37   38      ar
    44   38   39       1
    45   39   40       1
    46   39   41       1
    47   41   42       1
    48   42   43       1
    49   42   44       1
    50   44   45       1
    51   44   46       1
    52   46   47       1
    53   46   48       1
    54   48   49       1
    55   49   50       1
    56   50   51      ar
    57   50   52      ar
    58   50   53       1
    59   48   84       1
    60    5   54       1
    61    5   55       1
    62    6   56       1
    63    8   57       1
    64    9   58       1
    65   10   59       1
    66   11   60       1
    67   12   61       1
    68   14   62       1
    69   18   63       1
    70   18   64       1
    71   20   65       1
    72   26   66       1
    73   32   67       1
    74   34   68       1
    75   34   69       1
    76   34   70       1
    77   36   71       1
    78   36   72       1
    79   36   73       1
    80   37   74       1
    81   41   75       1
    82   41   76       1
    83   42   77       1
    84   43   78       1
    85   44   79       1
    86   45   80       1
    87   46   81       1
    88   47   82       1
    89   48   83       1
@<TRIPOS>SUBSTRUCTURE
     1 FAD402      1 GROUP             4 A     FAD     0 **** FAD A 402
