@<TRIPOS>MOLECULE
3vhu_SNL_1_ligand
   61    65     1     0     0
SMALL
NO_CHARGES


@<TRIPOS>ATOM
     1 C8          20.4060    11.1410    -0.7490 C.3          1 SNL1001   0.0000
     2 C4          17.3590    13.2880    -0.1940 C.3          1 SNL1001   0.0000
     3 C5          18.7590    12.9370    -0.6750 C.3          1 SNL1001   0.0000
     4 C2          18.3130    16.2810     2.1040 C.3          1 SNL1001   0.0000
     5 C6          19.6550    12.9910     0.5530 C.3          1 SNL1001   0.0000
     6 C1          16.9060    16.5190     2.6230 C.3          1 SNL1001   0.0000
     7 C3          17.3460    14.6820     0.4020 C.3          1 SNL1001   0.0000
     8 C7          20.9110    12.2480     0.1590 C.3          1 SNL1001   0.0000
     9 C9          18.9730    11.4990    -1.1290 C.3          1 SNL1001   0.0000
    10 C10         19.1930    13.8800    -1.8060 C.3          1 SNL1001   0.0000
    11 C11         18.6600    17.3230     1.0510 C.3          1 SNL1001   0.0000
    12 C12         16.8240    17.8240     3.3910 C.3          1 SNL1001   0.0000
    13 C13         17.9430    10.5560    -0.5400 C.3          1 SNL1001   0.0000
    14 C14         16.9540    10.3230    -1.6410 C.3          1 SNL1001   0.0000
    15 C15         17.6710    10.8220    -2.8470 C.2          1 SNL1001   0.0000
    16 C16         21.5980    13.1350     4.7090 C.2          1 SNL1001   0.0000
    17 C17         21.5090    12.0230     5.7000 C.3          1 SNL1001   0.0000
    18 C18         17.8070    17.8040     4.5130 C.2          1 SNL1001   0.0000
    19 C19         19.1280    17.1700     4.3110 C.2          1 SNL1001   0.0000
    20 C20         19.3290    16.4630     3.1890 C.2          1 SNL1001   0.0000
    21 C21         20.6780    15.8510     2.9930 C.3          1 SNL1001   0.0000
    22 C22         20.6810    14.4600     2.3750 C.3          1 SNL1001   0.0000
    23 C23         19.7570    14.3820     1.1650 C.3          1 SNL1001   0.0000
    24 C24         18.3460    14.8470     1.5510 C.3          1 SNL1001   0.0000
    25 O57         17.2450    10.7610    -3.9800 O.2          1 SNL1001   0.0000
    26 O58         18.8750    11.3500    -2.5300 O.3          1 SNL1001   0.0000
    27 O59         22.5820    13.8560     4.6720 O.2          1 SNL1001   0.0000
    28 O60         17.5680    18.3570     5.5730 O.2          1 SNL1001   0.0000
    29 S61         20.1680    13.3110     3.6740 S.3          1 SNL1001   0.0000
    30 H1          20.4253    10.2651    -0.2669 H            1 SNL1001   0.0000
    31 H2          20.9750    11.0826    -1.5693 H            1 SNL1001   0.0000
    32 H3          17.0733    12.6285     0.5013 H            1 SNL1001   0.0000
    33 H4          16.7254    13.2530    -0.9669 H            1 SNL1001   0.0000
    34 H5          19.2068    12.4221     1.2426 H            1 SNL1001   0.0000
    35 H6          16.6492    15.7661     3.2290 H            1 SNL1001   0.0000
    36 H7          16.2736    16.5546     1.8492 H            1 SNL1001   0.0000
    37 H8          16.4274    14.8727     0.7483 H            1 SNL1001   0.0000
    38 H9          17.5743    15.3387    -0.3168 H            1 SNL1001   0.0000
    39 H10         21.5425    12.8498    -0.3300 H            1 SNL1001   0.0000
    40 H11         21.3678    11.8685     0.9636 H            1 SNL1001   0.0000
    41 H12         20.1139    13.6351    -2.1093 H            1 SNL1001   0.0000
    42 H13         18.5563    13.7963    -2.5726 H            1 SNL1001   0.0000
    43 H14         19.1915    14.8229    -1.4729 H            1 SNL1001   0.0000
    44 H15         19.5873    17.1603     0.7139 H            1 SNL1001   0.0000
    45 H16         18.0129    17.2576     0.2914 H            1 SNL1001   0.0000
    46 H17         18.6079    18.2360     1.4556 H            1 SNL1001   0.0000
    47 H18         15.9009    17.9368     3.7587 H            1 SNL1001   0.0000
    48 H19         17.0339    18.5854     2.7776 H            1 SNL1001   0.0000
    49 H20         17.4961    10.9737     0.2510 H            1 SNL1001   0.0000
    50 H21         18.3715     9.6954    -0.2648 H            1 SNL1001   0.0000
    51 H22         16.1126    10.8400    -1.4836 H            1 SNL1001   0.0000
    52 H23         16.7364     9.3509    -1.7288 H            1 SNL1001   0.0000
    53 H24         20.6395    11.5426     5.5848 H            1 SNL1001   0.0000
    54 H25         22.2645    11.3845     5.5533 H            1 SNL1001   0.0000
    55 H26         21.5633    12.3966     6.6260 H            1 SNL1001   0.0000
    56 H27         19.8526    17.2660     4.9934 H            1 SNL1001   0.0000
    57 H28         21.1229    15.7924     3.8867 H            1 SNL1001   0.0000
    58 H29         21.2068    16.4547     2.3964 H            1 SNL1001   0.0000
    59 H30         21.6119    14.2330     2.0888 H            1 SNL1001   0.0000
    60 H31         20.1084    15.0041     0.4653 H            1 SNL1001   0.0000
    61 H32         18.0374    14.2470     2.2891 H            1 SNL1001   0.0000
@<TRIPOS>BOND
     1    1    8       1
     2    1    9       1
     3    2    3       1
     4    2    7       1
     5    3    5       1
     6    3    9       1
     7    3   10       1
     8    4    6       1
     9    4   11       1
    10    4   20       1
    11    4   24       1
    12    5    8       1
    13    5   23       1
    14    6   12       1
    15    7   24       1
    16    9   13       1
    17    9   26       1
    18   12   18       1
    19   13   14       1
    20   14   15       1
    21   15   25       2
    22   15   26       1
    23   16   17       1
    24   16   27       2
    25   16   29       1
    26   18   19       1
    27   18   28       2
    28   19   20       2
    29   20   21       1
    30   21   22       1
    31   22   23       1
    32   22   29       1
    33   23   24       1
    34    1   30       1
    35    1   31       1
    36    2   32       1
    37    2   33       1
    38    5   34       1
    39    6   35       1
    40    6   36       1
    41    7   37       1
    42    7   38       1
    43    8   39       1
    44    8   40       1
    45   10   41       1
    46   10   42       1
    47   10   43       1
    48   11   44       1
    49   11   45       1
    50   11   46       1
    51   12   47       1
    52   12   48       1
    53   13   49       1
    54   13   50       1
    55   14   51       1
    56   14   52       1
    57   17   53       1
    58   17   54       1
    59   17   55       1
    60   19   56       1
    61   21   57       1
    62   21   58       1
    63   22   59       1
    64   23   60       1
    65   24   61       1
@<TRIPOS>SUBSTRUCTURE
     1 SNL1001     1 GROUP             4 A     SNL     0 **** SNL A1001
