@<TRIPOS>MOLECULE
4c3f_7KW_1_ligand
   39    42     1     0     0
SMALL
NO_CHARGES


@<TRIPOS>ATOM
     1 C1          20.6390     6.2420    53.9620 C.ar         1 7KW1499   0.0000
     2 C2          21.7610     6.9510    54.4330 C.ar         1 7KW1499   0.0000
     3 C3          21.9960     8.2500    53.9810 C.ar         1 7KW1499   0.0000
     4 C4          21.1400     8.8070    53.0200 C.ar         1 7KW1499   0.0000
     5 C5          20.0010     8.1300    52.5390 C.ar         1 7KW1499   0.0000
     6 C6          19.7710     6.8230    53.0200 C.ar         1 7KW1499   0.0000
     7 C7          21.4350    10.2110    52.6010 C.2          1 7KW1499   0.0000
     8 C9          22.6470    10.8030    52.0260 C.2          1 7KW1499   0.0000
     9 C8          22.3700    12.1090    51.9560 C.2          1 7KW1499   0.0000
    10 N2          21.1580    12.3210    52.4210 N.pl3        1 7KW1499   0.0000
    11 N1          20.6360    11.1480    52.8230 N.2          1 7KW1499   0.0000
    12 C10         23.9260    10.1630    51.4820 C.ar         1 7KW1499   0.0000
    13 C14         23.9540     8.8200    51.1440 C.ar         1 7KW1499   0.0000
    14 C13         25.1430     8.2950    50.5590 C.ar         1 7KW1499   0.0000
    15 N3          26.2020     9.1280    50.3530 N.ar         1 7KW1499   0.0000
    16 C12         26.1540    10.4260    50.6750 C.ar         1 7KW1499   0.0000
    17 N4          27.2590    11.1810    50.4240 N.pl3        1 7KW1499   0.0000
    18 C15         27.4260    12.5350    50.5840 C.ar         1 7KW1499   0.0000
    19 C20         26.5080    13.3720    51.2130 C.ar         1 7KW1499   0.0000
    20 C19         26.7750    14.7340    51.3560 C.ar         1 7KW1499   0.0000
    21 C18         27.9670    15.2960    50.8860 C.ar         1 7KW1499   0.0000
    22 C17         28.9090    14.4860    50.2560 C.ar         1 7KW1499   0.0000
    23 N9          25.0130    10.9360    51.2460 N.ar         1 7KW1499   0.0000
    24 C16         28.6380    13.1000    50.1130 C.ar         1 7KW1499   0.0000
    25 H1          20.4580     5.3184    54.2999 H            1 7KW1499   0.0000
    26 H2          22.3858     6.5258    55.0878 H            1 7KW1499   0.0000
    27 H3          22.7664     8.7780    54.3384 H            1 7KW1499   0.0000
    28 H4          19.3802     8.5589    51.8827 H            1 7KW1499   0.0000
    29 H5          18.9829     6.3049    52.6876 H            1 7KW1499   0.0000
    30 H6          22.9869    12.8136    51.6054 H            1 7KW1499   0.0000
    31 H7          20.6997    13.2086    52.4680 H            1 7KW1499   0.0000
    32 H8          23.1603     8.2337    51.3063 H            1 7KW1499   0.0000
    33 H9          25.1994     7.3298    50.3035 H            1 7KW1499   0.0000
    34 H10         28.0544    10.6839    50.0772 H            1 7KW1499   0.0000
    35 H11         25.6514    12.9943    51.5647 H            1 7KW1499   0.0000
    36 H12         26.1003    15.3208    51.8038 H            1 7KW1499   0.0000
    37 H13         28.1417    16.2738    51.0017 H            1 7KW1499   0.0000
    38 H14         29.7628    14.8748    49.9099 H            1 7KW1499   0.0000
    39 H15         29.3149    12.5109    49.6716 H            1 7KW1499   0.0000
@<TRIPOS>BOND
     1    1    2      ar
     2    1    6      ar
     3    2    3      ar
     4    3    4      ar
     5    4    5      ar
     6    4    7       1
     7    5    6      ar
     8    7    8       1
     9    7   11       2
    10    8    9       2
    11    8   12       1
    12    9   10       1
    13   10   11       1
    14   12   13      ar
    15   12   23      ar
    16   13   14      ar
    17   14   15      ar
    18   15   16      ar
    19   16   17       1
    20   16   23      ar
    21   17   18       1
    22   18   19      ar
    23   18   24      ar
    24   19   20      ar
    25   20   21      ar
    26   21   22      ar
    27   22   24      ar
    28    1   25       1
    29    2   26       1
    30    3   27       1
    31    5   28       1
    32    6   29       1
    33    9   30       1
    34   10   31       1
    35   13   32       1
    36   14   33       1
    37   17   34       1
    38   19   35       1
    39   20   36       1
    40   21   37       1
    41   22   38       1
    42   24   39       1
@<TRIPOS>SUBSTRUCTURE
     1 7KW1499     1 GROUP             4 A     7KW     0 **** 7KW A1499
