@<TRIPOS>MOLECULE
4qjl_COA_1_ligand
   80    82     1     0     0
SMALL
NO_CHARGES


@<TRIPOS>ATOM
     1 N1A        -16.8550   -17.3320     4.4910 N.ar         1 COA301   0.0000
     2 C2A        -16.6270   -16.7400     5.6840 C.ar         1 COA301   0.0000
     3 N3A        -15.4710   -16.9790     6.3580 N.ar         1 COA301   0.0000
     4 C4A        -14.5260   -17.7510     5.8130 C.ar         1 COA301   0.0000
     5 C5A        -14.7250   -18.3610     4.5660 C.ar         1 COA301   0.0000
     6 C6A        -15.9570   -18.1290     3.9350 C.ar         1 COA301   0.0000
     7 N6A        -16.2230   -18.7270     2.6610 N.pl3        1 COA301   0.0000
     8 N7A        -13.6250   -19.0750     4.2760 N.2          1 COA301   0.0000
     9 C8A        -12.7620   -18.9640     5.2830 C.2          1 COA301   0.0000
    10 N9A        -13.2790   -18.1620     6.2380 N.pl3        1 COA301   0.0000
    11 C1B        -12.6670   -17.7870     7.5280 C.3          1 COA301   0.0000
    12 C2B        -12.1980   -18.9790     8.3700 C.3          1 COA301   0.0000
    13 O2B        -12.7880   -18.9900     9.6220 O.3          1 COA301   0.0000
    14 C3B        -10.6960   -18.8080     8.4350 C.3          1 COA301   0.0000
    15 O3B        -10.1050   -19.2750     9.5920 O.3          1 COA301   0.0000
    16 P3B        -10.0190   -20.8120    10.0060 P.3          1 COA301   0.0000
    17 O7A        -11.4140   -21.2980    10.3380 O.co2        1 COA301   0.0000
    18 O8A         -9.4220   -21.5720     8.8530 O.co2        1 COA301  -1.0000
    19 O9A         -9.1420   -20.8680    11.2500 O.co2        1 COA301  -1.0000
    20 C4B        -10.5840   -17.3060     8.2770 C.3          1 COA301   0.0000
    21 O4B        -11.5990   -16.9300     7.3590 O.3          1 COA301   0.0000
    22 C5B         -9.2250   -16.7770     7.8220 C.3          1 COA301   0.0000
    23 O5B         -9.2840   -15.4050     7.7960 O.3          1 COA301   0.0000
    24 P1A         -7.9480   -14.6080     7.9300 P.3          1 COA301   0.0000
    25 O1A         -7.0320   -15.2860     8.8800 O.co2        1 COA301   0.0000
    26 O2A         -8.2710   -13.1640     8.2340 O.co2        1 COA301  -1.0000
    27 O3A         -7.2750   -14.7280     6.4840 O.3          1 COA301   0.0000
    28 P2A         -7.5520   -13.8040     5.2330 P.3          1 COA301   0.0000
    29 O4A         -7.3890   -12.3290     5.5850 O.co2        1 COA301   0.0000
    30 O5A         -6.5780   -14.2480     4.1850 O.co2        1 COA301  -1.0000
    31 O6A         -9.0460   -14.0040     4.7590 O.3          1 COA301   0.0000
    32 CBP        -10.1110   -15.3120     3.0810 C.3          1 COA301   0.0000
    33 CCP         -9.5430   -15.2860     4.4860 C.3          1 COA301   0.0000
    34 CDP        -10.7510   -16.6620     2.8440 C.3          1 COA301   0.0000
    35 CEP        -11.2230   -14.2490     2.9090 C.3          1 COA301   0.0000
    36 CAP         -8.9870   -15.0660     2.0180 C.3          1 COA301   0.0000
    37 OAP         -7.8660   -15.8390     2.2680 O.3          1 COA301   0.0000
    38 C9P         -9.3930   -15.3450     0.6130 C.2          1 COA301   0.0000
    39 O9P         -9.1300   -16.4010     0.0620 O.2          1 COA301   0.0000
    40 N8P        -10.1230   -14.3110    -0.0470 N.am         1 COA301   0.0000
    41 C7P        -10.5890   -14.4850    -1.4120 C.3          1 COA301   0.0000
    42 C6P        -11.9480   -13.8630    -1.4160 C.3          1 COA301   0.0000
    43 C5P        -11.8830   -12.3640    -1.1950 C.2          1 COA301   0.0000
    44 O5P        -11.3060   -11.8310    -0.2410 O.2          1 COA301   0.0000
    45 N4P        -12.5940   -11.5600    -2.1460 N.am         1 COA301   0.0000
    46 C3P        -12.6420   -10.1200    -2.0720 C.3          1 COA301   0.0000
    47 C2P        -14.0870    -9.6820    -2.1290 C.3          1 COA301   0.0000
    48 S1P        -14.1930    -7.9200    -2.4100 S.3          1 COA301   0.0000
    49 H2A        -17.3116   -16.1234     6.0728 H            1 COA301   0.0000
    50 H6A1       -15.5449   -19.3295     2.2401 H            1 COA301   0.0000
    51 H6A2       -17.0868   -18.5420     2.1924 H            1 COA301   0.0000
    52 H8A        -11.8666   -19.4073     5.3258 H            1 COA301   0.0000
    53 H1B        -13.3609   -17.3000     8.0585 H            1 COA301   0.0000
    54 H2B        -12.4156   -19.8301     7.8921 H            1 COA301   0.0000
    55 H7         -12.4579   -19.7797    10.1391 H            1 COA301   0.0000
    56 H3B        -10.2773   -19.2561     7.6452 H            1 COA301   0.0000
    57 H4B        -10.7972   -16.8872     9.1597 H            1 COA301   0.0000
    58 H5B1        -9.0157   -17.1240     6.9078 H            1 COA301   0.0000
    59 H5B2        -8.5154   -17.0730     8.4614 H            1 COA301   0.0000
    60 HCP1       -10.2630   -15.5122     5.1420 H            1 COA301   0.0000
    61 HCP2        -8.8028   -15.9543     4.5599 H            1 COA301   0.0000
    62 HDP1       -11.1305   -16.6933     1.9193 H            1 COA301   0.0000
    63 HDP2       -10.0624   -17.3799     2.9461 H            1 COA301   0.0000
    64 HDP3       -11.4832   -16.8053     3.5099 H            1 COA301   0.0000
    65 HEP1       -11.5795   -14.2876     1.9755 H            1 COA301   0.0000
    66 HEP2       -11.9628   -14.4328     3.5562 H            1 COA301   0.0000
    67 HEP3       -10.8450   -13.3399     3.0841 H            1 COA301   0.0000
    68 HAP         -8.7161   -14.1050     2.0743 H            1 COA301   0.0000
    69 H21         -7.2402   -15.3358     2.8640 H            1 COA301   0.0000
    70 H8P        -10.3159   -13.4568     0.4359 H            1 COA301   0.0000
    71 H7P1       -10.6421   -15.4553    -1.6479 H            1 COA301   0.0000
    72 H7P2        -9.9831   -14.0181    -2.0561 H            1 COA301   0.0000
    73 H6P1       -12.4942   -14.2742    -0.6862 H            1 COA301   0.0000
    74 H6P2       -12.3828   -14.0413    -2.2987 H            1 COA301   0.0000
    75 H4P        -13.0773   -12.0171    -2.8926 H            1 COA301   0.0000
    76 H3P1       -12.1400    -9.7262    -2.8420 H            1 COA301   0.0000
    77 H3P2       -12.2305    -9.8129    -1.2139 H            1 COA301   0.0000
    78 H2P1       -14.5334    -9.9049    -1.2624 H            1 COA301   0.0000
    79 H2P2       -14.5480   -10.1630    -2.8748 H            1 COA301   0.0000
    80 H1P        -15.1539    -7.6453    -2.4453 H            1 COA301   0.0000
@<TRIPOS>BOND
     1    1    2      ar
     2    1    6      ar
     3    2    3      ar
     4    3    4      ar
     5    4    5      ar
     6    4   10       1
     7    5    6      ar
     8    5    8       1
     9    6    7       1
    10    8    9       2
    11    9   10       1
    12   10   11       1
    13   11   12       1
    14   11   21       1
    15   12   13       1
    16   12   14       1
    17   14   15       1
    18   14   20       1
    19   15   16       1
    20   16   17      ar
    21   16   18      ar
    22   16   19      ar
    23   20   21       1
    24   20   22       1
    25   22   23       1
    26   23   24       1
    27   24   25      ar
    28   24   26      ar
    29   24   27       1
    30   27   28       1
    31   28   29      ar
    32   28   30      ar
    33   28   31       1
    34   31   33       1
    35   32   33       1
    36   32   34       1
    37   32   35       1
    38   32   36       1
    39   36   37       1
    40   36   38       1
    41   38   39       2
    42   38   40      am
    43   40   41       1
    44   41   42       1
    45   42   43       1
    46   43   44       2
    47   43   45      am
    48   45   46       1
    49   46   47       1
    50   47   48       1
    51    2   49       1
    52    7   50       1
    53    7   51       1
    54    9   52       1
    55   11   53       1
    56   12   54       1
    57   13   55       1
    58   14   56       1
    59   48   80       1
    60   47   79       1
    61   20   57       1
    62   22   58       1
    63   22   59       1
    64   47   78       1
    65   46   77       1
    66   33   60       1
    67   33   61       1
    68   34   62       1
    69   34   63       1
    70   34   64       1
    71   35   65       1
    72   35   66       1
    73   35   67       1
    74   36   68       1
    75   37   69       1
    76   40   70       1
    77   41   71       1
    78   41   72       1
    79   42   73       1
    80   42   74       1
    81   45   75       1
    82   46   76       1
@<TRIPOS>SUBSTRUCTURE
     1 COA301      1 GROUP             4 A     COA     0 **** COA A 301
