@<TRIPOS>MOLECULE
2l2s_L2S_1_ligand
   36    37     1     0     0
SMALL
NO_CHARGES


@<TRIPOS>ATOM
     1 C1          -5.2630    32.1880    -9.8700 C.3          1 L2S130   0.0000
     2 N1          -5.5790    34.5610    -8.2350 N.am         1 L2S130   0.0000
     3 O1          -4.8510    36.6040    -7.5220 O.2          1 L2S130   0.0000
     4 S1          -7.0480    37.6240    -6.0250 S.3          1 L2S130   0.0000
     5 C2          -4.3660    33.4000   -10.1050 C.3          1 L2S130   0.0000
     6 C3          -4.2430    34.2270    -8.8110 C.3          1 L2S130   0.0000
     7 C4          -6.5670    33.4500    -8.1250 C.3          1 L2S130   0.0000
     8 C5          -6.6620    32.6280    -9.4190 C.3          1 L2S130   0.0000
     9 C6          -5.7550    35.7710    -7.6430 C.2          1 L2S130   0.0000
    10 C7          -7.1500    36.1490    -7.1260 C.3          1 L2S130   0.0000
    11 C8          -7.6990    37.0830    -4.4860 C.ar         1 L2S130   0.0000
    12 C9          -6.8310    36.3400    -3.6520 C.ar         1 L2S130   0.0000
    13 C10         -7.3370    35.7110    -2.4980 C.ar         1 L2S130   0.0000
    14 C11         -8.7150    35.8460    -2.1910 C.ar         1 L2S130   0.0000
    15 C12         -9.5840    36.5840    -3.0160 C.ar         1 L2S130   0.0000
    16 C13         -9.0780    37.2130    -4.1700 C.ar         1 L2S130   0.0000
    17 C14         -9.2190    35.2220    -1.0460 C.3          1 L2S130   0.0000
    18 H1          -4.8562    31.6109    -9.1619 H            1 L2S130   0.0000
    19 H2          -5.3408    31.6674   -10.7203 H            1 L2S130   0.0000
    20 H3          -4.7619    33.9697   -10.8252 H            1 L2S130   0.0000
    21 H4          -3.4580    33.0898   -10.3867 H            1 L2S130   0.0000
    22 H5          -3.7236    33.6998    -8.1385 H            1 L2S130   0.0000
    23 H6          -3.7574    35.0769    -9.0154 H            1 L2S130   0.0000
    24 H7          -7.4664    33.8377    -7.9229 H            1 L2S130   0.0000
    25 H8          -6.2895    32.8449    -7.3787 H            1 L2S130   0.0000
    26 H9          -7.2263    31.8188    -9.2558 H            1 L2S130   0.0000
    27 H10         -7.0797    33.1867   -10.1355 H            1 L2S130   0.0000
    28 H11         -7.7440    36.3579    -7.9028 H            1 L2S130   0.0000
    29 H12         -7.5308    35.3800    -6.6125 H            1 L2S130   0.0000
    30 H13         -5.8608    36.2616    -3.8812 H            1 L2S130   0.0000
    31 H14         -6.7342    35.1777    -1.9045 H            1 L2S130   0.0000
    32 H15        -10.5538    36.6612    -2.7845 H            1 L2S130   0.0000
    33 H16         -9.6834    37.7459    -4.7612 H            1 L2S130   0.0000
    34 H17        -10.1982    35.4093    -0.9680 H            1 L2S130   0.0000
    35 H18         -9.0727    34.2350    -1.1125 H            1 L2S130   0.0000
    36 H19         -8.7466    35.5754    -0.2385 H            1 L2S130   0.0000
@<TRIPOS>BOND
     1    1    5       1
     2    1    8       1
     3    2    6       1
     4    2    7       1
     5    2    9      am
     6    3    9       2
     7    4   10       1
     8    4   11       1
     9    5    6       1
    10    7    8       1
    11    9   10       1
    12   11   12      ar
    13   11   16      ar
    14   12   13      ar
    15   13   14      ar
    16   14   15      ar
    17   14   17       1
    18   15   16      ar
    19    1   18       1
    20    1   19       1
    21    5   20       1
    22    5   21       1
    23    6   22       1
    24    6   23       1
    25    7   24       1
    26    7   25       1
    27    8   26       1
    28    8   27       1
    29   10   28       1
    30   10   29       1
    31   12   30       1
    32   13   31       1
    33   15   32       1
    34   16   33       1
    35   17   34       1
    36   17   35       1
    37   17   36       1
@<TRIPOS>SUBSTRUCTURE
     1 L2S130      1 GROUP             4 A     L2S     0 **** L2S A 130
