@<TRIPOS>MOLECULE
3vi7_CBD_1_ligand
   68    73     1     0     0
SMALL
NO_CHARGES


@<TRIPOS>ATOM
     1 C1          10.4760     2.3430    74.0600 C.ar         1 CBD201   0.0000
     2 SA          11.0280     2.0690    72.5560 S.o2         1 CBD201   0.0000
     3 O1A         10.3580     3.0120    71.6350 O.co2        1 CBD201   0.0000
     4 O2A         10.6100     0.6640    72.2320 O.co2        1 CBD201   0.0000
     5 O3A         12.5180     2.2300    72.4290 O.co2        1 CBD201  -1.0000
     6 C2           9.1270     2.1510    74.3780 C.ar         1 CBD201   0.0000
     7 N2           8.2910     1.7330    73.3890 N.pl3        1 CBD201   0.0000
     8 C3           8.6570     2.3810    75.7020 C.ar         1 CBD201   0.0000
     9 C4           7.3120     2.1900    76.0590 C.2          1 CBD201   0.0000
    10 O4           6.4920     1.8140    75.1960 O.2          1 CBD201   0.0000
    11 C5           6.8720     2.4180    77.3680 C.ar         1 CBD201   0.0000
    12 C6           5.5430     2.2270    77.7190 C.ar         1 CBD201   0.0000
    13 C7           5.0930     2.4580    79.0260 C.ar         1 CBD201   0.0000
    14 C8           5.9570     2.8940    80.0070 C.ar         1 CBD201   0.0000
    15 C9           7.2850     3.0790    79.6350 C.ar         1 CBD201   0.0000
    16 C10          7.7600     2.8450    78.3410 C.ar         1 CBD201   0.0000
    17 C11          9.1030     3.0420    78.0070 C.2          1 CBD201   0.0000
    18 O11          9.9980     3.4610    78.9430 O.2          1 CBD201   0.0000
    19 C12          9.5460     2.8040    76.7010 C.ar         1 CBD201   0.0000
    20 C13         10.8810     2.9910    76.3820 C.ar         1 CBD201   0.0000
    21 C14         11.3340     2.7630    75.0810 C.ar         1 CBD201   0.0000
    22 NB          11.7280     3.4080    77.3370 N.pl3        1 CBD201   0.0000
    23 CB1         14.9580     2.4430    76.0500 C.ar         1 CBD201   0.0000
    24 SB          15.5270     1.2870    75.0840 S.o2         1 CBD201   0.0000
    25 O1B         14.9150    -0.0080    75.4680 O.co2        1 CBD201   0.0000
    26 O2B         15.1370     1.6430    73.6880 O.co2        1 CBD201   0.0000
    27 O3B         17.0040     1.1100    75.1940 O.co2        1 CBD201  -1.0000
    28 CB2         15.7590     3.4170    76.6460 C.ar         1 CBD201   0.0000
    29 CB3         15.2090     4.3890    77.4800 C.ar         1 CBD201   0.0000
    30 CB4         13.8390     4.3940    77.7080 C.ar         1 CBD201   0.0000
    31 CB5         13.0430     3.4230    77.1170 C.ar         1 CBD201   0.0000
    32 CB6         13.5950     2.4590    76.2930 C.ar         1 CBD201   0.0000
    33 NC          17.0850     3.3790    76.4210 N.pl3        1 CBD201   0.0000
    34 NC1         18.1890     4.9530    75.1260 N.ar         1 CBD201   0.0000
    35 CC2         19.0330     6.0030    75.0430 C.ar         1 CBD201   0.0000
    36 CL          19.3970     6.6900    73.4270 Cl           1 CBD201   0.0000
    37 NC3         19.5910     6.5300    76.1660 N.ar         1 CBD201   0.0000
    38 CC4         19.3110     6.0010    77.3900 C.ar         1 CBD201   0.0000
    39 NC5         18.4610     4.9450    77.4700 N.ar         1 CBD201   0.0000
    40 CC6         17.9040     4.4380    76.3430 C.ar         1 CBD201   0.0000
    41 ND          19.8760     6.5240    78.5130 N.pl3        1 CBD201   0.0000
    42 CD1         18.6050     6.8660    80.5350 C.ar         1 CBD201   0.0000
    43 SD          17.9620     8.2600    79.9910 S.o2         1 CBD201   0.0000
    44 O1D         17.0770     7.9810    78.8270 O.co2        1 CBD201   0.0000
    45 O2D         19.0410     9.1790    79.5330 O.co2        1 CBD201   0.0000
    46 O3D         17.1680     8.9570    81.0400 O.co2        1 CBD201  -1.0000
    47 CD2         19.5130     6.1100    79.7580 C.ar         1 CBD201   0.0000
    48 CD3         20.0630     4.9100    80.2510 C.ar         1 CBD201   0.0000
    49 CD4         19.7160     4.4400    81.5170 C.ar         1 CBD201   0.0000
    50 CD5         18.8200     5.1820    82.2920 C.ar         1 CBD201   0.0000
    51 CD6         18.2680     6.3780    81.8100 C.ar         1 CBD201   0.0000
    52 H1           7.3210     1.5862    73.5830 H            1 CBD201   0.0000
    53 H2           8.6466     1.5726    72.4682 H            1 CBD201   0.0000
    54 H3           4.8929     1.9181    77.0248 H            1 CBD201   0.0000
    55 H4           4.1306     2.3041    79.2500 H            1 CBD201   0.0000
    56 H5           5.6448     3.0689    80.9408 H            1 CBD201   0.0000
    57 H6           7.9325     3.3954    80.3283 H            1 CBD201   0.0000
    58 H7          12.3019     2.9045    74.8731 H            1 CBD201   0.0000
    59 HB          11.3696     3.7098    78.2204 H            1 CBD201   0.0000
    60 HB3         15.7950     5.0759    77.9099 H            1 CBD201   0.0000
    61 HB4         13.4289     5.0927    78.2942 H            1 CBD201   0.0000
    62 HB6         13.0064     1.7698    75.8704 H            1 CBD201   0.0000
    63 HC          17.4985     2.4765    76.3007 H            1 CBD201   0.0000
    64 HD          20.5767     7.2315    78.4207 H            1 CBD201   0.0000
    65 HD3         20.7071     4.3915    79.6886 H            1 CBD201   0.0000
    66 HD4         20.1020     3.5857    81.8650 H            1 CBD201   0.0000
    67 HD5         18.5689     4.8554    83.2032 H            1 CBD201   0.0000
    68 HD6         17.6263     6.8904    82.3806 H            1 CBD201   0.0000
@<TRIPOS>BOND
     1    1    2       1
     2    1    6      ar
     3    1   21      ar
     4    2    3      ar
     5    2    4      ar
     6    2    5      ar
     7    6    7       1
     8    6    8      ar
     9    8    9       1
    10    8   19      ar
    11    9   10       2
    12    9   11       1
    13   11   12      ar
    14   11   16      ar
    15   12   13      ar
    16   13   14      ar
    17   14   15      ar
    18   15   16      ar
    19   16   17       1
    20   17   18       2
    21   17   19       1
    22   19   20      ar
    23   20   21      ar
    24   20   22       1
    25   22   31       1
    26   23   24       1
    27   23   28      ar
    28   23   32      ar
    29   24   25      ar
    30   24   26      ar
    31   24   27      ar
    32   28   29      ar
    33   28   33       1
    34   29   30      ar
    35   30   31      ar
    36   31   32      ar
    37   33   40       1
    38   34   35      ar
    39   34   40      ar
    40   35   36       1
    41   35   37      ar
    42   37   38      ar
    43   38   39      ar
    44   38   41       1
    45   39   40      ar
    46   41   47       1
    47   42   43       1
    48   42   47      ar
    49   42   51      ar
    50   43   44      ar
    51   43   45      ar
    52   43   46      ar
    53   47   48      ar
    54   48   49      ar
    55   49   50      ar
    56   50   51      ar
    57   51   68       1
    58    7   52       1
    59    7   53       1
    60   12   54       1
    61   13   55       1
    62   14   56       1
    63   15   57       1
    64   21   58       1
    65   22   59       1
    66   50   67       1
    67   29   60       1
    68   30   61       1
    69   32   62       1
    70   33   63       1
    71   41   64       1
    72   49   66       1
    73   48   65       1
@<TRIPOS>SUBSTRUCTURE
     1 CBD201      1 GROUP             4 A     CBD     0 **** CBD A 201
