@<TRIPOS>MOLECULE
1gae_NAD_1_ligand
   70    74     1     0     0
SMALL
NO_CHARGES


@<TRIPOS>ATOM
     1 PA           8.2000    82.2040    23.1030 P.3          1 NAD336   0.0000
     2 O1A          7.2350    83.1060    23.7860 O.co2        1 NAD336   0.0000
     3 O2A          8.7960    81.0410    23.8430 O.co2        1 NAD336  -1.0000
     4 O5B          9.3870    83.1460    22.5360 O.3          1 NAD336   0.0000
     5 C5B          9.2010    84.5580    22.4140 C.3          1 NAD336   0.0000
     6 C4B         10.3940    85.1000    23.1680 C.3          1 NAD336   0.0000
     7 O4B         10.5480    86.4740    22.8000 O.3          1 NAD336   0.0000
     8 C3B         10.2260    85.0160    24.6790 C.3          1 NAD336   0.0000
     9 O3B         11.3850    84.5220    25.3620 O.3          1 NAD336   0.0000
    10 C2B         10.0680    86.4660    25.1040 C.3          1 NAD336   0.0000
    11 O2B         10.6930    86.6910    26.3760 O.3          1 NAD336   0.0000
    12 C1B         10.8010    87.1950    24.0000 C.3          1 NAD336   0.0000
    13 N9A         10.3690    88.5970    23.8730 N.pl3        1 NAD336   0.0000
    14 C8A          9.1300    89.0710    24.0800 C.2          1 NAD336   0.0000
    15 N7A          9.0510    90.3670    23.7510 N.2          1 NAD336   0.0000
    16 C5A         10.2770    90.6590    23.3400 C.ar         1 NAD336   0.0000
    17 C6A         10.6780    91.9030    22.8650 C.ar         1 NAD336   0.0000
    18 N6A          9.8280    92.9250    22.7830 N.pl3        1 NAD336   0.0000
    19 N1A         11.9720    91.9930    22.4850 N.ar         1 NAD336   0.0000
    20 C2A         12.8040    90.9480    22.5680 C.ar         1 NAD336   0.0000
    21 N3A         12.4130    89.7500    23.0210 N.ar         1 NAD336   0.0000
    22 C4A         11.1330    89.5810    23.4130 C.ar         1 NAD336   0.0000
    23 O3           7.5490    81.6260    21.7280 O.3          1 NAD336   0.0000
    24 PN           7.9600    80.5830    20.5480 P.3          1 NAD336   0.0000
    25 O1N          7.1470    79.3380    20.7370 O.co2        1 NAD336   0.0000
    26 O2N          9.4330    80.4340    20.4420 O.co2        1 NAD336  -1.0000
    27 O5D          7.3920    81.3620    19.2440 O.3          1 NAD336   0.0000
    28 C5D          8.1070    82.4310    18.5770 C.3          1 NAD336   0.0000
    29 C4D          7.8970    82.3180    17.0590 C.3          1 NAD336   0.0000
    30 O4D          8.2230    80.9550    16.6460 O.3          1 NAD336   0.0000
    31 C3D          6.4350    82.5510    16.6420 C.3          1 NAD336   0.0000
    32 O3D          6.2840    83.3730    15.4630 O.3          1 NAD336   0.0000
    33 C2D          5.9170    81.1310    16.3770 C.3          1 NAD336   0.0000
    34 O2D          4.7940    81.0740    15.4800 O.3          1 NAD336   0.0000
    35 C1D          7.1600    80.4950    15.7750 C.3          1 NAD336   0.0000
    36 N1N          7.0610    79.0260    15.5730 N.ar         1 NAD336   1.0000
    37 C2N          7.0320    78.1840    16.7020 C.ar         1 NAD336   0.0000
    38 C3N          6.9580    76.7920    16.5530 C.ar         1 NAD336   0.0000
    39 C7N          6.9780    75.8910    17.8120 C.2          1 NAD336   0.0000
    40 O7N          6.7140    74.6920    17.7680 O.2          1 NAD336   0.0000
    41 N7N          7.2950    76.4700    18.9750 N.am         1 NAD336   0.0000
    42 C4N          6.9040    76.2570    15.2440 C.ar         1 NAD336   0.0000
    43 C5N          6.9270    77.0980    14.1160 C.ar         1 NAD336   0.0000
    44 C6N          7.0060    78.4870    14.2670 C.ar         1 NAD336   0.0000
    45 H5B1         8.3422    84.8489    22.8357 H            1 NAD336   0.0000
    46 H5B2         9.2160    84.8448    21.4561 H            1 NAD336   0.0000
    47 H4B         11.2126    84.5927    22.8986 H            1 NAD336   0.0000
    48 H3B          9.4150    84.4826    24.9194 H            1 NAD336   0.0000
    49 H5          12.1608    85.1268    25.1824 H            1 NAD336   0.0000
    50 H2B          9.1035    86.7290    25.1276 H            1 NAD336   0.0000
    51 H7          11.6463    86.9589    26.2363 H            1 NAD336   0.0000
    52 H1B         11.7822    87.1732    24.1917 H            1 NAD336   0.0000
    53 H8A          8.3676    88.5286    24.4329 H            1 NAD336   0.0000
    54 H6A1        10.1415    93.8096    22.4378 H            1 NAD336   0.0000
    55 H6A2         8.8763    92.8078    23.0666 H            1 NAD336   0.0000
    56 H2A         13.7545    91.0664    22.2806 H            1 NAD336   0.0000
    57 H5D1         9.0826    82.3600    18.7848 H            1 NAD336   0.0000
    58 H5D2         7.7615    83.3133    18.8966 H            1 NAD336   0.0000
    59 H4D          8.4921    82.9672    16.5853 H            1 NAD336   0.0000
    60 H3D          5.9288    82.9574    17.4027 H            1 NAD336   0.0000
    61 H17          6.2808    82.7915    14.6494 H            1 NAD336   0.0000
    62 H2D          5.6878    80.6834    17.2413 H            1 NAD336   0.0000
    63 H19          4.5140    80.1220    15.3565 H            1 NAD336   0.0000
    64 H1D          7.3058    80.9120    14.8778 H            1 NAD336   0.0000
    65 H2N          7.0645    78.5830    17.6184 H            1 NAD336   0.0000
    66 H7N1         7.3203    75.9261    19.8138 H            1 NAD336   0.0000
    67 H7N2         7.5068    77.4468    19.0059 H            1 NAD336   0.0000
    68 H4N          6.8487    75.2664    15.1187 H            1 NAD336   0.0000
    69 H5N          6.8866    76.7000    13.1995 H            1 NAD336   0.0000
    70 H6N          7.0232    79.0866    13.4669 H            1 NAD336   0.0000
@<TRIPOS>BOND
     1    1    2      ar
     2    1    3      ar
     3    1    4       1
     4    1   23       1
     5    4    5       1
     6    5    6       1
     7    6    7       1
     8    6    8       1
     9    7   12       1
    10    8    9       1
    11    8   10       1
    12   10   11       1
    13   10   12       1
    14   12   13       1
    15   13   14       1
    16   13   22       1
    17   14   15       2
    18   15   16       1
    19   16   17      ar
    20   16   22      ar
    21   17   18       1
    22   17   19      ar
    23   19   20      ar
    24   20   21      ar
    25   21   22      ar
    26   23   24       1
    27   24   25      ar
    28   24   26      ar
    29   24   27       1
    30   27   28       1
    31   28   29       1
    32   29   30       1
    33   29   31       1
    34   30   35       1
    35   31   32       1
    36   31   33       1
    37   33   34       1
    38   33   35       1
    39   35   36       1
    40   36   37      ar
    41   36   44      ar
    42   37   38      ar
    43   38   39       1
    44   38   42      ar
    45   39   40       2
    46   39   41      am
    47   42   43      ar
    48   43   44      ar
    49   44   70       1
    50    5   45       1
    51    5   46       1
    52    6   47       1
    53    8   48       1
    54    9   49       1
    55   10   50       1
    56   11   51       1
    57   12   52       1
    58   14   53       1
    59   18   54       1
    60   18   55       1
    61   20   56       1
    62   43   69       1
    63   28   57       1
    64   28   58       1
    65   29   59       1
    66   31   60       1
    67   32   61       1
    68   33   62       1
    69   34   63       1
    70   35   64       1
    71   37   65       1
    72   41   66       1
    73   41   67       1
    74   42   68       1
@<TRIPOS>SUBSTRUCTURE
     1 NAD336      1 GROUP             4 O     NAD     0 **** NAD O 336
