@<TRIPOS>MOLECULE
3n1t_5GP_3_ligand
   36    38     1     0     0
SMALL
NO_CHARGES


@<TRIPOS>ATOM
     1 P            2.3170    10.1440    63.9730 P.3          1 5GP200   0.0000
     2 O1P          3.0490    10.7540    65.1440 O.co2        1 5GP200   0.0000
     3 O2P          2.3120    10.9980    62.7270 O.co2        1 5GP200  -1.0000
     4 O3P          0.9770     9.5410    64.3200 O.co2        1 5GP200  -1.0000
     5 O5'          3.2210     8.8750    63.5690 O.3          1 5GP200   0.0000
     6 C5'          4.6300     8.8900    63.7900 C.3          1 5GP200   0.0000
     7 C4'          4.9830     7.8890    64.8840 C.3          1 5GP200   0.0000
     8 O4'          5.9360     6.9480    64.3810 O.3          1 5GP200   0.0000
     9 C3'          5.6110     8.5880    66.0800 C.3          1 5GP200   0.0000
    10 O3'          4.8250     8.3540    67.2530 O.3          1 5GP200   0.0000
    11 C2'          6.9900     7.9850    66.2510 C.3          1 5GP200   0.0000
    12 O2'          7.0970     7.3600    67.5340 O.3          1 5GP200   0.0000
    13 C1'          7.1410     6.9460    65.1520 C.3          1 5GP200   0.0000
    14 N9           8.2920     7.2980    64.2830 N.pl3        1 5GP200   0.0000
    15 C8           8.5950     8.5270    63.8410 C.2          1 5GP200   0.0000
    16 N7           9.7090     8.4590    63.0780 N.2          1 5GP200   0.0000
    17 C5          10.1020     7.1700    63.0460 C.2          1 5GP200   0.0000
    18 C6          11.1580     6.5100    62.4340 C.2          1 5GP200   0.0000
    19 O6          11.9810     7.1460    61.7410 O.2          1 5GP200   0.0000
    20 N1          11.2890     5.1880    62.5920 N.pl3        1 5GP200   0.0000
    21 C2          10.4140     4.4920    63.3320 C.2          1 5GP200   0.0000
    22 N2          10.5740     3.1540    63.4730 N.pl3        1 5GP200   0.0000
    23 N3           9.3750     5.1070    63.9410 N.2          1 5GP200   0.0000
    24 C4           9.2040     6.4440    63.8080 C.2          1 5GP200   0.0000
    25 H5'1         4.9134     9.8064    64.0725 H            1 5GP200   0.0000
    26 H5'2         5.1027     8.6407    62.9448 H            1 5GP200   0.0000
    27 H4'          4.1571     7.4059    65.1746 H            1 5GP200   0.0000
    28 H3'          5.6842     9.5699    65.9052 H            1 5GP200   0.0000
    29 H5           4.7794     7.3714    67.4332 H            1 5GP200   0.0000
    30 H2'          7.6896     8.6929    66.1537 H            1 5GP200   0.0000
    31 H7           6.8132     6.4037    67.4636 H            1 5GP200   0.0000
    32 H1'          7.2842     6.0425    65.5560 H            1 5GP200   0.0000
    33 H9           8.0799     9.3599    64.0432 H            1 5GP200   0.0000
    34 H10         12.0505     4.7121    62.1519 H            1 5GP200   0.0000
    35 H11          9.9255     2.6281    64.0234 H            1 5GP200   0.0000
    36 H12         11.3406     2.6923    63.0267 H            1 5GP200   0.0000
@<TRIPOS>BOND
     1    1    2      ar
     2    1    3      ar
     3    1    4      ar
     4    1    5       1
     5    5    6       1
     6    6    7       1
     7    7    8       1
     8    7    9       1
     9    8   13       1
    10    9   10       1
    11    9   11       1
    12   11   12       1
    13   11   13       1
    14   13   14       1
    15   14   15       1
    16   14   24       1
    17   15   16       2
    18   16   17       1
    19   17   18       1
    20   17   24       2
    21   18   19       2
    22   18   20       1
    23   20   21       1
    24   21   22       1
    25   21   23       2
    26   23   24       1
    27   22   36       1
    28   22   35       1
    29    6   25       1
    30    6   26       1
    31    7   27       1
    32    9   28       1
    33   10   29       1
    34   11   30       1
    35   12   31       1
    36   13   32       1
    37   15   33       1
    38   20   34       1
@<TRIPOS>SUBSTRUCTURE
     1 5GP200      1 GROUP             4 E     5GP     0 **** 5GP E 200
