@<TRIPOS>MOLECULE
4rzu_ADP_1_ligand
   39    41     1     0     0
SMALL
NO_CHARGES


@<TRIPOS>ATOM
     1 PB          35.9600    -6.9860   -33.6270 P.3          1 ADP301   0.0000
     2 O1B         34.5820    -7.5030   -33.2080 O.co2        1 ADP301   0.0000
     3 O2B         37.0980    -7.9660   -33.3220 O.co2        1 ADP301  -1.0000
     4 O3B         36.3050    -5.6040   -33.1460 O.co2        1 ADP301  -1.0000
     5 PA          36.5040    -7.4050   -36.4910 P.3          1 ADP301   0.0000
     6 O1A         37.5050    -8.4940   -36.0890 O.co2        1 ADP301   0.0000
     7 O2A         35.4360    -7.6910   -37.5020 O.co2        1 ADP301  -1.0000
     8 O3A         35.7560    -6.6800   -35.2250 O.3          1 ADP301   0.0000
     9 O5'         37.3020    -6.1650   -37.1650 O.3          1 ADP301   0.0000
    10 C5'         38.6290    -6.2740   -37.6830 C.3          1 ADP301   0.0000
    11 C4'         38.7060    -5.7400   -39.1180 C.3          1 ADP301   0.0000
    12 O4'         39.8480    -6.3150   -39.7760 O.3          1 ADP301   0.0000
    13 C3'         37.5030    -6.1060   -39.9740 C.3          1 ADP301   0.0000
    14 O3'         37.1330    -4.9900   -40.7840 O.3          1 ADP301   0.0000
    15 C2'         37.9620    -7.2810   -40.8200 C.3          1 ADP301   0.0000
    16 O2'         37.6100    -7.0660   -42.1840 O.3          1 ADP301   0.0000
    17 C1'         39.4740    -7.3760   -40.6580 C.3          1 ADP301   0.0000
    18 N9          39.9810    -8.6230   -40.0330 N.pl3        1 ADP301   0.0000
    19 C8          39.3270    -9.5430   -39.2900 C.2          1 ADP301   0.0000
    20 N7          40.1750   -10.5380   -38.8970 N.2          1 ADP301   0.0000
    21 C5          41.4020   -10.2510   -39.3790 C.ar         1 ADP301   0.0000
    22 C6          42.7580   -10.8670   -39.3400 C.ar         1 ADP301   0.0000
    23 N6          43.0200   -12.0330   -38.6840 N.pl3        1 ADP301   0.0000
    24 N1          43.7380   -10.2090   -40.0000 N.ar         1 ADP301   0.0000
    25 C2          43.5390    -9.0520   -40.6680 C.ar         1 ADP301   0.0000
    26 N3          42.3420    -8.4460   -40.7520 N.ar         1 ADP301   0.0000
    27 C4          41.2600    -8.9860   -40.1310 C.ar         1 ADP301   0.0000
    28 H5'1        38.9042    -7.2354   -37.6769 H            1 ADP301   0.0000
    29 H5'2        39.2502    -5.7458   -37.1040 H            1 ADP301   0.0000
    30 H4'         38.8044    -4.7451   -39.0951 H            1 ADP301   0.0000
    31 H3'         36.7366    -6.3788   -39.3925 H            1 ADP301   0.0000
    32 H5          36.1947    -4.7188   -40.5694 H            1 ADP301   0.0000
    33 H2'         37.5338    -8.1222   -40.4897 H            1 ADP301   0.0000
    34 H7          37.1398    -6.1879   -42.2725 H            1 ADP301   0.0000
    35 H1'         39.9145    -7.2438   -41.5460 H            1 ADP301   0.0000
    36 H9          38.3548    -9.5007   -39.0596 H            1 ADP301   0.0000
    37 H10         43.9463   -12.4098   -38.6846 H            1 ADP301   0.0000
    38 H11         42.2859   -12.5115   -38.2022 H            1 ADP301   0.0000
    39 H12         44.3208    -8.6251   -41.1225 H            1 ADP301   0.0000
@<TRIPOS>BOND
     1    1    2      ar
     2    1    3      ar
     3    1    4      ar
     4    1    8       1
     5    5    6      ar
     6    5    7      ar
     7    5    8       1
     8    5    9       1
     9    9   10       1
    10   10   11       1
    11   11   12       1
    12   11   13       1
    13   12   17       1
    14   13   14       1
    15   13   15       1
    16   15   16       1
    17   15   17       1
    18   17   18       1
    19   18   19       1
    20   18   27       1
    21   19   20       2
    22   20   21       1
    23   21   22      ar
    24   21   27      ar
    25   22   23       1
    26   22   24      ar
    27   24   25      ar
    28   25   26      ar
    29   26   27      ar
    30   25   39       1
    31   23   38       1
    32   23   37       1
    33   10   28       1
    34   10   29       1
    35   11   30       1
    36   13   31       1
    37   14   32       1
    38   15   33       1
    39   16   34       1
    40   17   35       1
    41   19   36       1
@<TRIPOS>SUBSTRUCTURE
     1 ADP301      1 GROUP             4 A     ADP     0 **** ADP A 301
