@<TRIPOS>MOLECULE
2npd_IMD_1_ligand
    9     9     1     0     0
SMALL
NO_CHARGES


@<TRIPOS>ATOM
     1 N1          41.4470    18.2680    24.0700 N.2          1 IMD701   0.0000
     2 C2          42.7080    17.8030    23.9080 C.2          1 IMD701   0.0000
     3 N3          43.2510    18.4540    22.8470 N.pl3        1 IMD701   0.0000
     4 C4          42.3240    19.3200    22.3620 C.2          1 IMD701   0.0000
     5 C5          41.1810    19.2090    23.1330 C.2          1 IMD701   0.0000
     6 H1          43.1578    17.1069    24.4677 H            1 IMD701   0.0000
     7 H2          42.4467    19.9328    21.5814 H            1 IMD701   0.0000
     8 H3          40.3292    19.7208    23.0210 H            1 IMD701   0.0000
     9 H4          44.1736    18.3191    22.4855 H            1 IMD701   0.0000
@<TRIPOS>BOND
     1    1    2       2
     2    1    5       1
     3    2    3       1
     4    3    4       1
     5    4    5       2
     6    5    8       1
     7    2    6       1
     8    4    7       1
     9    3    9       1
@<TRIPOS>SUBSTRUCTURE
     1 IMD701      1 GROUP             4 A     IMD     0 **** IMD A 701
