@<TRIPOS>MOLECULE
1k0a_GTX_1_ligand
   54    53     1     0     0
SMALL
NO_CHARGES


@<TRIPOS>ATOM
     1 N1          11.1660     7.1600    14.3990 N.4          1 GTX355   1.0000
     2 CA1         11.3100     8.6950    14.4320 C.3          1 GTX355   0.0000
     3 C1          10.1710     9.2870    13.6330 C.2          1 GTX355   0.0000
     4 O11          9.6690    10.3640    14.0070 O.co2        1 GTX355   0.0000
     5 O12          9.7210     8.6020    12.5230 O.co2        1 GTX355  -1.0000
     6 CB1         12.7180     9.0790    13.8550 C.3          1 GTX355   0.0000
     7 CG1         12.9860    10.6240    13.8400 C.3          1 GTX355   0.0000
     8 CD1         14.4360    10.9130    13.6200 C.2          1 GTX355   0.0000
     9 OE1         15.2540    10.0200    13.2410 O.2          1 GTX355   0.0000
    10 N2          14.7810    12.1900    13.8540 N.am         1 GTX355   0.0000
    11 CA2         16.1720    12.6270    13.6840 C.3          1 GTX355   0.0000
    12 C2          16.6570    13.3570    15.0090 C.2          1 GTX355   0.0000
    13 O2          15.8790    14.0010    15.6880 O.2          1 GTX355   0.0000
    14 CB2         16.2910    13.7060    12.5400 C.3          1 GTX355   0.0000
    15 SG2         15.7740    13.0900    10.9170 S.3          1 GTX355   0.0000
    16 C1S         16.7010    11.5400    10.6110 C.3          1 GTX355   0.0000
    17 C2S         18.2040    11.7800    10.5160 C.3          1 GTX355   0.0000
    18 C3S         18.9460    10.8500     9.5660 C.3          1 GTX355   0.0000
    19 C4S         19.9960    11.4290     8.5930 C.3          1 GTX355   0.0000
    20 C5S         19.5390    12.6020     7.6820 C.3          1 GTX355   0.0000
    21 C6S         18.4980    12.2490     6.5960 C.3          1 GTX355   0.0000
    22 N3          17.9060    13.2200    15.3470 N.am         1 GTX355   0.0000
    23 CA3         18.3760    12.1660    16.2600 C.3          1 GTX355   0.0000
    24 C3          19.3120    12.7500    17.2580 C.2          1 GTX355   0.0000
    25 O31         19.8850    12.0930    18.1830 O.co2        1 GTX355   0.0000
    26 O32         19.5100    14.0610    17.1010 O.co2        1 GTX355  -1.0000
    27 H1          11.9810     6.7576    13.9821 H            1 GTX355   0.0000
    28 H2          11.0638     6.8147    15.3319 H            1 GTX355   0.0000
    29 HA1         11.2459     9.0106    15.3787 H            1 GTX355   0.0000
    30 HB11        12.7798     8.7377    12.9171 H            1 GTX355   0.0000
    31 HB12        13.4204     8.6411    14.4161 H            1 GTX355   0.0000
    32 HG11        12.7041    11.0135    14.7168 H            1 GTX355   0.0000
    33 HG12        12.4538    11.0413    13.1034 H            1 GTX355   0.0000
    34 H8          14.0859    12.8470    14.1458 H            1 GTX355   0.0000
    35 HA2         16.7601    11.8432    13.4844 H            1 GTX355   0.0000
    36 HB21        17.2449    13.9997    12.4788 H            1 GTX355   0.0000
    37 HB22        15.7161    14.4881    12.7804 H            1 GTX355   0.0000
    38 H1S1        16.3836    11.1387     9.7518 H            1 GTX355   0.0000
    39 H1S2        16.5228    10.9041    11.3619 H            1 GTX355   0.0000
    40 H2S1        18.5946    11.6661    11.4295 H            1 GTX355   0.0000
    41 H2S2        18.3490    12.7197    10.2063 H            1 GTX355   0.0000
    42 H3S1        18.2535    10.3935     9.0073 H            1 GTX355   0.0000
    43 H3S2        19.4170    10.1732    10.1318 H            1 GTX355   0.0000
    44 H4S1        20.2992    10.6847     7.9979 H            1 GTX355   0.0000
    45 H4S2        20.7676    11.7541     9.1397 H            1 GTX355   0.0000
    46 H5S1        20.3491    12.9664     7.2226 H            1 GTX355   0.0000
    47 H5S2        19.1423    13.3083     8.2683 H            1 GTX355   0.0000
    48 H6S1        18.2743    13.0692     6.0696 H            1 GTX355   0.0000
    49 H6S2        18.8764    11.5537     5.9850 H            1 GTX355   0.0000
    50 H6S3        17.6696    11.8956     7.0306 H            1 GTX355   0.0000
    51 H25         18.5761    13.8592    14.9697 H            1 GTX355   0.0000
    52 HA31        18.8485    11.4578    15.7354 H            1 GTX355   0.0000
    53 HA32        17.5931    11.7631    16.7341 H            1 GTX355   0.0000
    54 H28         10.3598     6.9123    13.8616 H            1 GTX355   0.0000
@<TRIPOS>BOND
     1    1    2       1
     2    2    3       1
     3    2    6       1
     4    3    4      ar
     5    3    5      ar
     6    6    7       1
     7    7    8       1
     8    8    9       2
     9    8   10      am
    10   10   11       1
    11   11   12       1
    12   11   14       1
    13   12   13       2
    14   12   22      am
    15   14   15       1
    16   15   16       1
    17   16   17       1
    18   17   18       1
    19   18   19       1
    20   19   20       1
    21   20   21       1
    22   22   23       1
    23   23   24       1
    24   24   25      ar
    25   24   26      ar
    26    1   27       1
    27    1   28       1
    28    2   29       1
    29    1   54       1
    30    6   30       1
    31    6   31       1
    32    7   32       1
    33    7   33       1
    34   10   34       1
    35   11   35       1
    36   14   36       1
    37   14   37       1
    38   16   38       1
    39   16   39       1
    40   17   40       1
    41   17   41       1
    42   18   42       1
    43   18   43       1
    44   19   44       1
    45   19   45       1
    46   20   46       1
    47   20   47       1
    48   21   48       1
    49   21   49       1
    50   21   50       1
    51   22   51       1
    52   23   52       1
    53   23   53       1
@<TRIPOS>SUBSTRUCTURE
     1 GTX355      1 GROUP             4 A     GTX     0 **** GTX A 355
