@<TRIPOS>MOLECULE
4lj3_C2E_1_ligand
   70    76     1     0     0
SMALL
NO_CHARGES


@<TRIPOS>ATOM
     1 P1          14.0080     5.2660    24.8000 P.3          1 C2E401   0.0000
     2 O2P         13.8970     3.7750    24.8260 O.3          1 C2E401   0.0000
     3 O1P         12.7490     6.0180    25.1290 O.2          1 C2E401   0.0000
     4 O5'         15.2010     5.7020    25.7480 O.3          1 C2E401   0.0000
     5 C5'         15.2300     6.9140    26.4960 C.3          1 C2E401   0.0000
     6 C4'         15.7660     8.0640    25.6920 C.3          1 C2E401   0.0000
     7 O4'         15.4730     9.2540    26.4130 O.3          1 C2E401   0.0000
     8 C3'         17.2770     8.0220    25.5190 C.3          1 C2E401   0.0000
     9 O3'         17.7030     8.7260    24.3570 O.3          1 C2E401   0.0000
    10 C2'         17.7390     8.7170    26.7900 C.3          1 C2E401   0.0000
    11 O2'         19.1020     9.1930    26.8000 O.3          1 C2E401   0.0000
    12 C1'         16.7170     9.8370    26.7810 C.3          1 C2E401   0.0000
    13 N9          16.5340    10.4810    28.0790 N.pl3        1 C2E401   0.0000
    14 C8          16.5910     9.8940    29.3060 C.2          1 C2E401   0.0000
    15 N7          16.3770    10.7800    30.2850 N.2          1 C2E401   0.0000
    16 C5          16.1190    11.9520    29.6390 C.2          1 C2E401   0.0000
    17 C6          15.7990    13.2910    30.1060 C.2          1 C2E401   0.0000
    18 O6          15.7260    13.4970    31.3290 O.2          1 C2E401   0.0000
    19 N1          15.6630    14.2330    29.1860 N.pl3        1 C2E401   0.0000
    20 C2          15.7620    13.9860    27.8600 C.2          1 C2E401   0.0000
    21 N2          15.5570    15.0030    27.0320 N.pl3        1 C2E401   0.0000
    22 N3          16.0490    12.7760    27.3060 N.2          1 C2E401   0.0000
    23 C4          16.2310    11.7500    28.1960 C.2          1 C2E401   0.0000
    24 P11         18.7580     8.0940    23.3410 P.3          1 C2E401   0.0000
    25 O21         18.9900     9.1660    22.3000 O.3          1 C2E401   0.0000
    26 O11         19.7950     7.2860    23.9970 O.2          1 C2E401   0.0000
    27 O5A         17.7920     6.9940    22.6820 O.3          1 C2E401   0.0000
    28 C5A         16.7430     7.3690    21.8170 C.3          1 C2E401   0.0000
    29 C4A         15.9190     6.1410    21.5000 C.3          1 C2E401   0.0000
    30 O4A         16.7600     5.2570    20.7310 O.3          1 C2E401   0.0000
    31 C3A         15.4370     5.2920    22.6580 C.3          1 C2E401   0.0000
    32 O3A         14.2930     5.8450    23.3320 O.3          1 C2E401   0.0000
    33 C2A         15.2590     3.9600    21.9290 C.3          1 C2E401   0.0000
    34 O2A         13.9770     3.9190    21.3050 O.3          1 C2E401   0.0000
    35 C1A         16.3470     3.9210    20.8590 C.3          1 C2E401   0.0000
    36 N91         17.4720     3.1000    21.3180 N.pl3        1 C2E401   0.0000
    37 C81         18.4720     3.4750    22.1530 C.2          1 C2E401   0.0000
    38 N71         19.3120     2.4440    22.3820 N.2          1 C2E401   0.0000
    39 C51         18.8110     1.3950    21.6990 C.2          1 C2E401   0.0000
    40 C61         19.1630    -0.0130    21.4740 C.2          1 C2E401   0.0000
    41 O61         20.1830    -0.5040    22.0020 O.2          1 C2E401   0.0000
    42 N11         18.3820    -0.7510    20.6640 N.2          1 C2E401   0.0000
    43 C21         17.2710    -0.2880    20.0750 C.2          1 C2E401   0.0000
    44 N21         16.5650    -1.1390    19.3000 N.pl3        1 C2E401   0.0000
    45 N31         16.8630     0.9870    20.2330 N.pl3        1 C2E401   0.0000
    46 C41         17.5990     1.8420    21.0050 C.2          1 C2E401   0.0000
    47 H2P         13.2118     3.4801    24.1600 H            1 C2E401   0.0000
    48 H5'1        15.8119     6.7833    27.2987 H            1 C2E401   0.0000
    49 H5'2        14.2998     7.1329    26.7907 H            1 C2E401   0.0000
    50 H4'         15.3213     8.0901    24.7967 H            1 C2E401   0.0000
    51 H3'         17.6024     7.0767    25.4967 H            1 C2E401   0.0000
    52 H2'         17.5822     8.1216    27.5780 H            1 C2E401   0.0000
    53 H7          19.6644     8.6058    26.2179 H            1 C2E401   0.0000
    54 H1'         16.9786    10.5227    26.1017 H            1 C2E401   0.0000
    55 H9          16.7704     8.9218    29.4566 H            1 C2E401   0.0000
    56 H10         15.4788    15.1693    29.4849 H            1 C2E401   0.0000
    57 H11         15.6206    14.8638    26.0438 H            1 C2E401   0.0000
    58 H12         15.3390    15.9084    27.3964 H            1 C2E401   0.0000
    59 H13         18.1622     9.7180    22.1997 H            1 C2E401   0.0000
    60 H5A1        17.1215     7.7483    20.9727 H            1 C2E401   0.0000
    61 H5A2        16.1678     8.0553    22.2622 H            1 C2E401   0.0000
    62 H4A         15.1331     6.4101    20.9433 H            1 C2E401   0.0000
    63 H3A         16.1825     5.1983    23.3179 H            1 C2E401   0.0000
    64 H2A         15.3644     3.1953    22.5647 H            1 C2E401   0.0000
    65 H19         13.2646     4.0133    22.0004 H            1 C2E401   0.0000
    66 H1A         15.9836     3.5758    19.9937 H            1 C2E401   0.0000
    67 H21         18.5732     4.3893    22.5451 H            1 C2E401   0.0000
    68 H22         15.7309    -0.8265    18.8455 H            1 C2E401   0.0000
    69 H23         16.8763    -2.0818    19.1805 H            1 C2E401   0.0000
    70 H24         16.0262     1.3058    19.7878 H            1 C2E401   0.0000
@<TRIPOS>BOND
     1    1    2       1
     2    1    3       2
     3    1    4       1
     4    1   32       1
     5    4    5       1
     6    5    6       1
     7    6    7       1
     8    6    8       1
     9    7   12       1
    10    8    9       1
    11    8   10       1
    12    9   24       1
    13   10   11       1
    14   10   12       1
    15   12   13       1
    16   13   14       1
    17   13   23       1
    18   14   15       2
    19   15   16       1
    20   16   17       1
    21   16   23       2
    22   17   18       2
    23   17   19       1
    24   19   20       1
    25   20   21       1
    26   20   22       2
    27   22   23       1
    28   24   25       1
    29   24   26       2
    30   24   27       1
    31   27   28       1
    32   28   29       1
    33   29   30       1
    34   29   31       1
    35   30   35       1
    36   31   32       1
    37   31   33       1
    38   33   34       1
    39   33   35       1
    40   35   36       1
    41   36   37       1
    42   36   46       1
    43   37   38       2
    44   38   39       1
    45   39   40       1
    46   39   46       2
    47   40   41       2
    48   40   42       1
    49   42   43       2
    50   43   44       1
    51   43   45       1
    52   45   46       1
    53    2   47       1
    54    5   48       1
    55    5   49       1
    56    6   50       1
    57    8   51       1
    58   10   52       1
    59   11   53       1
    60   12   54       1
    61   14   55       1
    62   19   56       1
    63   21   57       1
    64   21   58       1
    65   25   59       1
    66   28   60       1
    67   28   61       1
    68   29   62       1
    69   31   63       1
    70   33   64       1
    71   34   65       1
    72   35   66       1
    73   37   67       1
    74   44   69       1
    75   44   68       1
    76   45   70       1
@<TRIPOS>SUBSTRUCTURE
     1 C2E401      1 GROUP             4 A     C2E     0 **** C2E A 401
