@<TRIPOS>MOLECULE
4xbj_IN5_2_ligand
   37    37     1     0     0
SMALL
NO_CHARGES


@<TRIPOS>ATOM
     1 C1          50.5390    -2.9560   -34.3000 C.ar         1 IN5401   0.0000
     2 C2          50.3520    -0.5720   -34.4530 C.ar         1 IN5401   0.0000
     3 C3          49.9040    -0.5290   -33.1260 C.ar         1 IN5401   0.0000
     4 O4          46.5920    -5.6950   -31.2540 O.co2        1 IN5401   0.0000
     5 O5          48.5730    -6.8820   -32.1330 O.co2        1 IN5401  -1.0000
     6 C7          49.9720    -4.2460   -32.2700 C.3          1 IN5401   0.0000
     7 C8          49.3000    -1.6510   -30.9030 C.3          1 IN5401   0.0000
     8 C9          47.4230    -1.1960   -29.2690 C.3          1 IN5401   0.0000
     9 C10         48.0990    -2.1290   -28.2710 C.3          1 IN5401   0.0000
    10 N1          50.6640    -1.7910   -35.0660 N.ar         1 IN5401   0.0000
    11 C4          49.6960    -1.7040   -32.3910 C.ar         1 IN5401   0.0000
    12 C5          50.0870    -2.9150   -32.9760 C.ar         1 IN5401   0.0000
    13 O1          49.5820     0.6960   -32.6260 O.3          1 IN5401   0.0000
    14 C6          50.4710     0.6680   -35.2990 C.3          1 IN5401   0.0000
    15 O2          48.5880    -4.4000   -31.9630 O.3          1 IN5401   0.0000
    16 N2          47.9510    -1.1770   -30.6520 N.4          1 IN5401   1.0000
    17 P1          48.1000    -5.7560   -31.2460 P.3          1 IN5401   0.0000
    18 O3          48.7450    -5.7520   -29.8800 O.co2        1 IN5401  -1.0000
    19 P2          47.3620     0.5260   -28.6230 P.3          1 IN5401   0.0000
    20 O6          48.7400     1.0180   -28.3490 O.co2        1 IN5401   0.0000
    21 O7          46.7180     1.4160   -29.7030 O.co2        1 IN5401  -1.0000
    22 O8          46.5320     0.5720   -27.3260 O.co2        1 IN5401  -1.0000
    23 H1          50.7780    -3.8372   -34.7079 H            1 IN5401   0.0000
    24 H2          50.5173    -4.2446   -31.4317 H            1 IN5401   0.0000
    25 H3          50.2813    -4.9858   -32.8676 H            1 IN5401   0.0000
    26 H4          49.9374    -1.0409   -30.4324 H            1 IN5401   0.0000
    27 H5          49.3815    -2.5735   -30.5257 H            1 IN5401   0.0000
    28 H6          46.4734    -1.5018   -29.3374 H            1 IN5401   0.0000
    29 H7          47.6505    -2.0466   -27.3810 H            1 IN5401   0.0000
    30 H8          48.0266    -3.0724   -28.5947 H            1 IN5401   0.0000
    31 H9          49.0635    -1.8801   -28.1825 H            1 IN5401   0.0000
    32 H10         49.2570     0.7820   -31.6842 H            1 IN5401   0.0000
    33 H11         50.8065     0.4205   -36.2079 H            1 IN5401   0.0000
    34 H12         49.5741     1.1025   -35.3817 H            1 IN5401   0.0000
    35 H13         51.1114     1.3045   -34.8692 H            1 IN5401   0.0000
    36 H14         47.3365    -1.7379   -31.2068 H            1 IN5401   0.0000
    37 H15         47.9116    -0.2286   -30.9665 H            1 IN5401   0.0000
@<TRIPOS>BOND
     1    1   10      ar
     2    1   12      ar
     3    2    3      ar
     4    2   10      ar
     5    2   14       1
     6    3   11      ar
     7    3   13       1
     8    4   17      ar
     9    5   17      ar
    10    6   12       1
    11    6   15       1
    12    7   11       1
    13    7   16       1
    14    8    9       1
    15    8   16       1
    16    8   19       1
    17   11   12      ar
    18   15   17       1
    19   17   18      ar
    20   19   20      ar
    21   19   21      ar
    22   19   22      ar
    23    1   23       1
    24   16   36       1
    25   16   37       1
    26    6   24       1
    27    6   25       1
    28    7   26       1
    29    7   27       1
    30    8   28       1
    31    9   29       1
    32    9   30       1
    33    9   31       1
    34   13   32       1
    35   14   33       1
    36   14   34       1
    37   14   35       1
@<TRIPOS>SUBSTRUCTURE
     1 IN5401      1 GROUP             4 B     IN5     0 **** IN5 B 401
