@<TRIPOS>MOLECULE
4qly_FMN_2_ligand
   50    52     1     0     0
SMALL
NO_CHARGES


@<TRIPOS>ATOM
     1 N1          -9.4040     8.8020    -7.8620 N.2          1 FMN301   0.0000
     2 C2          -9.6420    10.0700    -8.3540 C.2          1 FMN301   0.0000
     3 O2         -10.7890    10.3920    -8.6280 O.2          1 FMN301   0.0000
     4 N3          -8.6230    10.9770    -8.5400 N.pl3        1 FMN301   0.0000
     5 C4          -7.3360    10.6270    -8.2490 C.2          1 FMN301   0.0000
     6 O4          -6.4150    11.4320    -8.4160 O.2          1 FMN301   0.0000
     7 C4A         -7.0900     9.3490    -7.7610 C.2          1 FMN301   0.0000
     8 N5          -5.8110     8.9980    -7.4540 N.2          1 FMN301   0.0000
     9 C5A         -5.5530     7.7510    -6.9430 C.ar         1 FMN301   0.0000
    10 C6          -4.2380     7.4290    -6.6280 C.ar         1 FMN301   0.0000
    11 C7          -3.9450     6.1790    -6.1140 C.ar         1 FMN301   0.0000
    12 C7M         -2.5120     5.8670    -5.7720 C.3          1 FMN301   0.0000
    13 C8          -4.9740     5.2550    -5.9110 C.ar         1 FMN301   0.0000
    14 C8M         -4.6850     3.8860    -5.3590 C.3          1 FMN301   0.0000
    15 C9          -6.2890     5.5760    -6.2410 C.ar         1 FMN301   0.0000
    16 C9A         -6.5850     6.8300    -6.7580 C.ar         1 FMN301   0.0000
    17 N10         -7.8850     7.1820    -7.0760 N.pl3        1 FMN301   0.0000
    18 C10         -8.1230     8.4430    -7.5640 C.2          1 FMN301   0.0000
    19 C1'         -9.0370     6.2280    -6.9160 C.3          1 FMN301   0.0000
    20 C2'         -9.0550     5.2830    -8.1630 C.3          1 FMN301   0.0000
    21 O2'         -9.5140     5.8960    -9.3730 O.3          1 FMN301   0.0000
    22 C3'         -9.8960     4.0390    -7.9010 C.3          1 FMN301   0.0000
    23 O3'         -9.4110     3.3630    -6.7680 O.3          1 FMN301   0.0000
    24 C4'         -9.9430     3.0140    -9.0400 C.3          1 FMN301   0.0000
    25 O4'        -10.5210     3.5680   -10.2120 O.3          1 FMN301   0.0000
    26 C5'        -10.7590     1.8260    -8.5440 C.3          1 FMN301   0.0000
    27 O5'        -12.0280     2.2990    -8.1150 O.3          1 FMN301   0.0000
    28 P          -12.5490     1.9760    -6.6250 P.3          1 FMN301   0.0000
    29 O1P        -12.4590     0.4930    -6.3630 O.co2        1 FMN301   0.0000
    30 O2P        -13.9510     2.5070    -6.3860 O.co2        1 FMN301  -1.0000
    31 O3P        -11.6170     2.6940    -5.6560 O.co2        1 FMN301  -1.0000
    32 H1          -8.8257    11.8922    -8.8883 H            1 FMN301   0.0000
    33 H2          -3.5082     8.0972    -6.7722 H            1 FMN301   0.0000
    34 H7M1        -2.4501     4.9355    -5.4135 H            1 FMN301   0.0000
    35 H7M2        -1.9483     5.9459    -6.5942 H            1 FMN301   0.0000
    36 H7M3        -2.1861     6.5124    -5.0812 H            1 FMN301   0.0000
    37 H8M1        -5.5382     3.3698    -5.2842 H            1 FMN301   0.0000
    38 H8M2        -4.0573     3.4054    -5.9713 H            1 FMN301   0.0000
    39 H8M3        -4.2674     3.9726    -4.4545 H            1 FMN301   0.0000
    40 H9          -7.0178     4.9048    -6.1058 H            1 FMN301   0.0000
    41 H1'1        -9.8957     6.7378    -6.8635 H            1 FMN301   0.0000
    42 H1'2        -8.9182     5.6885    -6.0824 H            1 FMN301   0.0000
    43 H2'         -8.1152     4.9796    -8.3205 H            1 FMN301   0.0000
    44 H13         -9.9525     5.2071    -9.9501 H            1 FMN301   0.0000
    45 H3'        -10.8325     4.3327    -7.7094 H            1 FMN301   0.0000
    46 H15        -10.1656     2.8889    -6.3143 H            1 FMN301   0.0000
    47 H4'         -9.0129     2.7097    -9.2457 H            1 FMN301   0.0000
    48 H17        -11.4550     3.8656   -10.0144 H            1 FMN301   0.0000
    49 H5'1       -10.2863     1.3876    -7.7796 H            1 FMN301   0.0000
    50 H5'2       -10.8781     1.1654    -9.2853 H            1 FMN301   0.0000
@<TRIPOS>BOND
     1    1    2       1
     2    1   18       2
     3    2    3       2
     4    2    4       1
     5    4    5       1
     6    5    6       2
     7    5    7       1
     8    7    8       2
     9    7   18       1
    10    8    9       1
    11    9   10      ar
    12    9   16      ar
    13   10   11      ar
    14   11   12       1
    15   11   13      ar
    16   13   14       1
    17   13   15      ar
    18   15   16      ar
    19   16   17       1
    20   17   18       1
    21   17   19       1
    22   19   20       1
    23   20   21       1
    24   20   22       1
    25   22   23       1
    26   22   24       1
    27   24   25       1
    28   24   26       1
    29   26   27       1
    30   27   28       1
    31   28   29      ar
    32   28   30      ar
    33   28   31      ar
    34    4   32       1
    35   10   33       1
    36   12   34       1
    37   12   35       1
    38   12   36       1
    39   14   37       1
    40   14   38       1
    41   14   39       1
    42   15   40       1
    43   19   41       1
    44   19   42       1
    45   20   43       1
    46   21   44       1
    47   22   45       1
    48   23   46       1
    49   24   47       1
    50   25   48       1
    51   26   49       1
    52   26   50       1
@<TRIPOS>SUBSTRUCTURE
     1 FMN301      1 GROUP             4 B     FMN     0 **** FMN B 301
