@<TRIPOS>MOLECULE
4bae_RWX_3_ligand
   53    56     1     0     0
SMALL
NO_CHARGES


@<TRIPOS>ATOM
     1 C28         20.3050     5.6090    20.5670 C.2          1 RWX1256   0.0000
     2 C3          25.1990     4.6070    34.4160 C.2          1 RWX1256   0.0000
     3 C4          24.6970     4.6990    33.0970 C.2          1 RWX1256   0.0000
     4 C20         23.0430     4.9040    22.6950 C.2          1 RWX1256   0.0000
     5 C5          25.1020     3.5720    32.4050 C.2          1 RWX1256   0.0000
     6 C21         24.3170     4.5780    22.2740 C.2          1 RWX1256   0.0000
     7 C2          25.9030     3.4360    34.5280 C.2          1 RWX1256   0.0000
     8 C26         22.0020     5.4020    21.7760 C.2          1 RWX1256   0.0000
     9 C18         23.8600     4.3600    24.6870 C.2          1 RWX1256   0.0000
    10 C7          24.9010     3.0880    31.0750 C.2          1 RWX1256   0.0000
    11 C23         24.9230     4.5930    20.9750 C.2          1 RWX1256   0.0000
    12 C11         25.2070     3.5030    27.9700 C.3          1 RWX1256   0.0000
    13 C12         24.8820     3.1940    26.5240 C.3          1 RWX1256   0.0000
    14 C14         22.6540     4.1660    26.7610 C.3          1 RWX1256   0.0000
    15 C10         23.9480     3.6190    28.8120 C.3          1 RWX1256   0.0000
    16 C15         22.9440     4.5920    28.1960 C.3          1 RWX1256   0.0000
    17 C1          26.6220     2.8890    35.6800 C.3          1 RWX1256   0.0000
    18 C31         22.9750     7.7030    21.3130 C.3          1 RWX1256   0.0000
    19 C17         22.7440     6.8290    28.9140 C.3          1 RWX1256   0.0000
    20 N27         20.9390     4.7260    21.4050 N.2          1 RWX1256   0.0000
    21 N29         20.9170     6.7870    20.4000 N.2          1 RWX1256   0.0000
    22 N19         22.7920     4.7880    24.0400 N.2          1 RWX1256   0.0000
    23 N6          25.8400     2.8460    33.3010 N.pl3        1 RWX1256   0.0000
    24 N30         21.9980     6.6350    21.1790 N.pl3        1 RWX1256   0.0000
    25 N13         23.9260     4.1740    26.0410 N.pl3        1 RWX1256   0.0000
    26 N9          24.2320     3.9250    30.2010 N.am         1 RWX1256   0.0000
    27 O8          25.3230     1.9820    30.7820 O.2          1 RWX1256   0.0000
    28 O24         26.0580     4.9660    20.7120 O.co2        1 RWX1256   0.0000
    29 O25         24.0600     4.1240    20.0350 O.co2        1 RWX1256  -1.0000
    30 O16         23.5160     5.9070    28.1550 O.3          1 RWX1256   0.0000
    31 S22         25.2180     4.1050    23.6520 S.3          1 RWX1256   0.0000
    32 CL3         24.9590     5.7590    35.6340 Cl           1 RWX1256   0.0000
    33 BR3         23.6290     6.2010    32.5970 Br           1 RWX1256   0.0000
    34 H1          19.4430     5.3867    20.1115 H            1 RWX1256   0.0000
    35 H2          25.7072     4.3679    28.0128 H            1 RWX1256   0.0000
    36 H3          25.7778     2.7692    28.3386 H            1 RWX1256   0.0000
    37 H4          24.4875     2.2776    26.4564 H            1 RWX1256   0.0000
    38 H5          25.7164     3.2390    25.9747 H            1 RWX1256   0.0000
    39 H6          22.0158     4.8077    26.3357 H            1 RWX1256   0.0000
    40 H7          22.2599     3.2470    26.7496 H            1 RWX1256   0.0000
    41 H8          23.5145     2.7179    28.8017 H            1 RWX1256   0.0000
    42 H9          22.0990     4.6001    28.7307 H            1 RWX1256   0.0000
    43 H10         27.0316     2.0113    35.4312 H            1 RWX1256   0.0000
    44 H11         27.3414     3.5260    35.9571 H            1 RWX1256   0.0000
    45 H12         25.9841     2.7561    36.4386 H            1 RWX1256   0.0000
    46 H13         22.6959     8.4824    20.7520 H            1 RWX1256   0.0000
    47 H14         23.0314     7.9849    22.2708 H            1 RWX1256   0.0000
    48 H15         23.8697     7.3764    21.0084 H            1 RWX1256   0.0000
    49 H16         23.1656     7.7346    28.8672 H            1 RWX1256   0.0000
    50 H17         21.8169     6.8732    28.5418 H            1 RWX1256   0.0000
    51 H18         22.7067     6.5275    29.8667 H            1 RWX1256   0.0000
    52 H19         26.2842     1.9779    33.0794 H            1 RWX1256   0.0000
    53 H20         23.9206     4.8076    30.5531 H            1 RWX1256   0.0000
@<TRIPOS>BOND
     1    1   20       1
     2    1   21       2
     3    2    3       1
     4    2    7       2
     5    2   32       1
     6    3    5       2
     7    3   33       1
     8    4    6       2
     9    4    8       1
    10    4   22       1
    11    5   10       1
    12    5   23       1
    13    6   11       1
    14    6   31       1
    15    7   17       1
    16    7   23       1
    17    8   20       2
    18    8   24       1
    19    9   22       2
    20    9   25       1
    21    9   31       1
    22   10   26      am
    23   10   27       2
    24   11   28      ar
    25   11   29      ar
    26   12   13       1
    27   12   15       1
    28   13   25       1
    29   14   16       1
    30   14   25       1
    31   15   16       1
    32   15   26       1
    33   16   30       1
    34   18   24       1
    35   19   30       1
    36   21   24       1
    37    1   34       1
    38   12   35       1
    39   12   36       1
    40   13   37       1
    41   13   38       1
    42   14   39       1
    43   14   40       1
    44   15   41       1
    45   16   42       1
    46   17   43       1
    47   17   44       1
    48   17   45       1
    49   18   46       1
    50   18   47       1
    51   18   48       1
    52   19   49       1
    53   19   50       1
    54   19   51       1
    55   23   52       1
    56   26   53       1
@<TRIPOS>SUBSTRUCTURE
     1 RWX1256     1 GROUP             4 C     RWX     0 **** RWX C1256
