@<TRIPOS>MOLECULE
2cy2_ACO_1_ligand
   85    87     1     0     0
SMALL
NO_CHARGES


@<TRIPOS>ATOM
     1 N1A          0.6250    47.8880    68.8060 N.ar         1 ACO200   0.0000
     2 C2A          1.9460    47.8750    68.7280 C.ar         1 ACO200   0.0000
     3 N3A          2.5720    47.0850    67.8740 N.ar         1 ACO200   0.0000
     4 C4A          1.8830    46.2710    67.0590 C.ar         1 ACO200   0.0000
     5 C5A          0.4960    46.2550    67.1190 C.ar         1 ACO200   0.0000
     6 C6A         -0.1310    47.0990    68.0280 C.ar         1 ACO200   0.0000
     7 N6A         -1.4580    47.1530    68.0900 N.pl3        1 ACO200   0.0000
     8 N7A          0.0580    45.4110    66.1900 N.2          1 ACO200   0.0000
     9 C8A          1.1240    44.9140    65.5660 C.2          1 ACO200   0.0000
    10 N9A          2.2350    45.4340    66.0880 N.pl3        1 ACO200   0.0000
    11 C1B          3.6100    45.1210    65.6390 C.3          1 ACO200   0.0000
    12 C2B          3.9240    43.6710    66.0030 C.3          1 ACO200   0.0000
    13 O2B          4.4380    43.6570    67.3380 O.3          1 ACO200   0.0000
    14 C3B          5.0500    43.3910    65.0100 C.3          1 ACO200   0.0000
    15 O3B          6.2670    43.9870    65.4690 O.3          1 ACO200   0.0000
    16 P3B          7.6720    43.3430    65.0140 P.3          1 ACO200   0.0000
    17 O7A          7.8810    41.9880    65.5710 O.co2        1 ACO200   0.0000
    18 O8A          8.7710    44.4090    65.5130 O.co2        1 ACO200  -1.0000
    19 O9A          7.6980    43.3450    63.4040 O.co2        1 ACO200  -1.0000
    20 C4B          4.5520    44.1010    63.7470 C.3          1 ACO200   0.0000
    21 O4B          3.6930    45.1620    64.2030 O.3          1 ACO200   0.0000
    22 C5B          3.7400    43.1610    62.8490 C.3          1 ACO200   0.0000
    23 O5B          2.6080    42.6410    63.5540 O.3          1 ACO200   0.0000
    24 P1A          1.6860    41.4640    62.9550 P.3          1 ACO200   0.0000
    25 O1A          1.7740    40.2690    63.8260 O.co2        1 ACO200   0.0000
    26 O2A          1.9340    41.2830    61.5080 O.co2        1 ACO200  -1.0000
    27 O3A          0.2420    42.1410    63.1830 O.3          1 ACO200   0.0000
    28 P2A         -1.1430    41.3860    62.8520 P.3          1 ACO200   0.0000
    29 O4A         -1.9270    41.3060    64.1070 O.co2        1 ACO200   0.0000
    30 O5A         -0.8530    40.1330    62.1200 O.co2        1 ACO200  -1.0000
    31 O6A         -1.8900    42.4230    61.8660 O.3          1 ACO200   0.0000
    32 CBP         -3.7900    43.9590    62.1770 C.3          1 ACO200   0.0000
    33 CCP         -2.2790    43.7310    62.3090 C.3          1 ACO200   0.0000
    34 CDP         -4.1340    45.3700    62.6610 C.3          1 ACO200   0.0000
    35 CEP         -4.2020    43.8560    60.7060 C.3          1 ACO200   0.0000
    36 CAP         -4.5070    42.8990    63.0210 C.3          1 ACO200   0.0000
    37 OAP         -4.0930    43.0250    64.3860 O.3          1 ACO200   0.0000
    38 C9P         -6.0340    43.0150    62.9460 C.2          1 ACO200   0.0000
    39 O9P         -6.6630    42.4720    62.0380 O.2          1 ACO200   0.0000
    40 N8P         -6.5740    43.7530    63.9160 N.am         1 ACO200   0.0000
    41 C7P         -8.0160    44.0070    64.0680 C.3          1 ACO200   0.0000
    42 C6P         -8.6360    44.6040    62.8010 C.3          1 ACO200   0.0000
    43 C5P         -8.0160    45.9540    62.4300 C.2          1 ACO200   0.0000
    44 O5P         -7.8590    46.8350    63.2730 O.2          1 ACO200   0.0000
    45 N4P         -7.6730    46.0690    61.1490 N.am         1 ACO200   0.0000
    46 C3P         -7.0730    47.2860    60.5820 C.3          1 ACO200   0.0000
    47 C2P         -8.1870    48.2800    60.2450 C.3          1 ACO200   0.0000
    48 S1P         -7.6170    49.7060    59.2480 S.3          1 ACO200   0.0000
    49 C           -8.1880    49.1790    57.5900 C.2          1 ACO200   0.0000
    50 O           -9.3030    48.2890    57.7000 O.2          1 ACO200   0.0000
    51 CH3         -7.0520    48.5470    56.7860 C.3          1 ACO200   0.0000
    52 H2A          2.4795    48.4734    69.3257 H            1 ACO200   0.0000
    53 H6A1        -2.0105    46.5595    67.5047 H            1 ACO200   0.0000
    54 H6A2        -1.9036    47.7871    68.7219 H            1 ACO200   0.0000
    55 H8A          1.0955    44.2505    64.8183 H            1 ACO200   0.0000
    56 H1B          4.2723    45.7452    66.0534 H            1 ACO200   0.0000
    57 H2B          3.1400    43.0621    65.8826 H            1 ACO200   0.0000
    58 H7           5.2679    44.2132    67.3815 H            1 ACO200   0.0000
    59 H3B          5.1620    42.4095    64.8549 H            1 ACO200   0.0000
    60 H4B          5.3252    44.4795    63.2381 H            1 ACO200   0.0000
    61 H5B1         4.3219    42.4020    62.5569 H            1 ACO200   0.0000
    62 H5B2         3.4232    43.6662    62.0463 H            1 ACO200   0.0000
    63 HCP1        -1.8004    44.4140    61.7572 H            1 ACO200   0.0000
    64 HCP2        -2.0196    43.8368    63.2690 H            1 ACO200   0.0000
    65 HDP1        -5.1189    45.5208    62.5758 H            1 ACO200   0.0000
    66 HDP2        -3.8632    45.4692    63.6185 H            1 ACO200   0.0000
    67 HDP3        -3.6446    46.0417    62.1049 H            1 ACO200   0.0000
    68 HEP1        -5.1874    44.0052    60.6246 H            1 ACO200   0.0000
    69 HEP2        -3.7149    44.5487    60.1741 H            1 ACO200   0.0000
    70 HEP3        -3.9727    42.9468    60.3585 H            1 ACO200   0.0000
    71 HAP         -4.2399    41.9941    62.6896 H            1 ACO200   0.0000
    72 H21         -3.2903    42.4503    64.5453 H            1 ACO200   0.0000
    73 H8P         -5.9563    44.1627    64.5873 H            1 ACO200   0.0000
    74 H7P1        -8.1522    44.6461    64.8249 H            1 ACO200   0.0000
    75 H7P2        -8.4750    43.1429    64.2746 H            1 ACO200   0.0000
    76 H6P1        -9.6163    44.7312    62.9521 H            1 ACO200   0.0000
    77 H6P2        -8.4954    43.9667    62.0433 H            1 ACO200   0.0000
    78 H4P         -7.8310    45.2897    60.5426 H            1 ACO200   0.0000
    79 H3P1        -6.5673    47.0546    59.7509 H            1 ACO200   0.0000
    80 H3P2        -6.4496    47.6944    61.2487 H            1 ACO200   0.0000
    81 H2P1        -8.5721    48.6258    61.1006 H            1 ACO200   0.0000
    82 H2P2        -8.8965    47.7979    59.7310 H            1 ACO200   0.0000
    83 HH31        -7.3933    48.2700    55.8878 H            1 ACO200   0.0000
    84 HH32        -6.3143    49.2124    56.6716 H            1 ACO200   0.0000
    85 HH33        -6.7052    47.7452    57.2726 H            1 ACO200   0.0000
@<TRIPOS>BOND
     1    1    2      ar
     2    1    6      ar
     3    2    3      ar
     4    3    4      ar
     5    4    5      ar
     6    4   10       1
     7    5    6      ar
     8    5    8       1
     9    6    7       1
    10    8    9       2
    11    9   10       1
    12   10   11       1
    13   11   12       1
    14   11   21       1
    15   12   13       1
    16   12   14       1
    17   14   15       1
    18   14   20       1
    19   15   16       1
    20   16   17      ar
    21   16   18      ar
    22   16   19      ar
    23   20   21       1
    24   20   22       1
    25   22   23       1
    26   23   24       1
    27   24   25      ar
    28   24   26      ar
    29   24   27       1
    30   27   28       1
    31   28   29      ar
    32   28   30      ar
    33   28   31       1
    34   31   33       1
    35   32   33       1
    36   32   34       1
    37   32   35       1
    38   32   36       1
    39   36   37       1
    40   36   38       1
    41   38   39       2
    42   38   40      am
    43   40   41       1
    44   41   42       1
    45   42   43       1
    46   43   44       2
    47   43   45      am
    48   45   46       1
    49   46   47       1
    50   47   48       1
    51   48   49       1
    52   49   50       2
    53   49   51       1
    54    2   52       1
    55    7   53       1
    56    7   54       1
    57    9   55       1
    58   11   56       1
    59   12   57       1
    60   13   58       1
    61   14   59       1
    62   51   85       1
    63   51   84       1
    64   20   60       1
    65   22   61       1
    66   22   62       1
    67   51   83       1
    68   47   82       1
    69   33   63       1
    70   33   64       1
    71   34   65       1
    72   34   66       1
    73   34   67       1
    74   35   68       1
    75   35   69       1
    76   35   70       1
    77   36   71       1
    78   37   72       1
    79   40   73       1
    80   41   74       1
    81   41   75       1
    82   42   76       1
    83   42   77       1
    84   45   78       1
    85   46   79       1
    86   46   80       1
    87   47   81       1
@<TRIPOS>SUBSTRUCTURE
     1 ACO200      1 GROUP             4 A     ACO     0 **** ACO A 200
