@<TRIPOS>MOLECULE
1e5q_NDP_1_ligand
   73    77     1     0     0
SMALL
NO_CHARGES


@<TRIPOS>ATOM
     1 PA          35.2000    43.5060    70.6150 P.3          1 NDP500   0.0000
     2 O1A         34.3070    42.6360    71.3390 O.co2        1 NDP500   0.0000
     3 O2A         34.9570    44.9820    70.5140 O.co2        1 NDP500  -1.0000
     4 O5B         36.7010    43.2350    71.2490 O.3          1 NDP500   0.0000
     5 C5B         37.8190    43.9580    70.7330 C.3          1 NDP500   0.0000
     6 C4B         39.0140    43.4210    71.5190 C.3          1 NDP500   0.0000
     7 O4B         40.1930    44.0950    70.9560 O.3          1 NDP500   0.0000
     8 C3B         39.1000    43.5970    73.0540 C.3          1 NDP500   0.0000
     9 O3B         39.5300    42.3550    73.6660 O.3          1 NDP500   0.0000
    10 C2B         40.1350    44.7000    73.2060 C.3          1 NDP500   0.0000
    11 O2B         41.0370    44.9760    74.2940 O.3          1 NDP500   0.0000
    12 C1B         40.9460    44.5200    72.0470 C.3          1 NDP500   0.0000
    13 N9A         41.7290    45.7700    71.9010 N.pl3        1 NDP500   0.0000
    14 C8A         41.2660    47.0900    71.6680 C.2          1 NDP500   0.0000
    15 N7A         42.2720    47.9350    71.6210 N.2          1 NDP500   0.0000
    16 C5A         43.4080    47.2070    71.8210 C.ar         1 NDP500   0.0000
    17 C6A         44.7760    47.5310    71.8890 C.ar         1 NDP500   0.0000
    18 N6A         45.1720    48.8070    71.7380 N.pl3        1 NDP500   0.0000
    19 N1A         45.6760    46.5480    72.1080 N.ar         1 NDP500   0.0000
    20 C2A         45.2600    45.2600    72.2640 C.ar         1 NDP500   0.0000
    21 N3A         43.9880    44.8470    72.2210 N.ar         1 NDP500   0.0000
    22 C4A         43.0980    45.8830    71.9930 C.ar         1 NDP500   0.0000
    23 O3          35.3830    43.0140    69.1200 O.3          1 NDP500   0.0000
    24 PN          34.8490    41.8010    68.2110 P.3          1 NDP500   0.0000
    25 O1N         33.3840    41.9060    68.2100 O.co2        1 NDP500   0.0000
    26 O2N         35.4940    40.5690    68.7910 O.co2        1 NDP500  -1.0000
    27 O5D         35.5610    42.0940    66.7950 O.3          1 NDP500   0.0000
    28 C5D         37.0180    42.0410    66.5850 C.3          1 NDP500   0.0000
    29 C4D         37.3000    42.3680    65.0720 C.3          1 NDP500   0.0000
    30 O4D         36.4650    41.5050    64.3080 O.3          1 NDP500   0.0000
    31 C3D         36.8830    43.8020    64.6610 C.3          1 NDP500   0.0000
    32 O3D         37.8550    44.3430    63.7500 O.3          1 NDP500   0.0000
    33 C2D         35.5330    43.6370    64.0450 C.3          1 NDP500   0.0000
    34 O2D         35.2350    44.7230    63.1800 O.3          1 NDP500   0.0000
    35 C1D         35.7580    42.2460    63.3260 C.3          1 NDP500   0.0000
    36 N1N         34.4630    41.5780    63.0540 N.ar         1 NDP500   1.0000
    37 C2N         34.3150    41.0840    61.7420 C.ar         1 NDP500   0.0000
    38 C3N         33.0620    40.4330    61.4360 C.ar         1 NDP500   0.0000
    39 C7N         32.8360    39.8830    60.0910 C.2          1 NDP500   0.0000
    40 O7N         31.7460    39.3910    59.7280 O.2          1 NDP500   0.0000
    41 N7N         33.8400    39.8730    59.1790 N.am         1 NDP500   0.0000
    42 C4N         32.0860    40.3390    62.4450 C.ar         1 NDP500   0.0000
    43 C5N         32.2550    40.8270    63.7140 C.ar         1 NDP500   0.0000
    44 C6N         33.4460    41.4490    64.0280 C.ar         1 NDP500   0.0000
    45 P2B         40.8900    45.3420    75.7400 P.3          1 NDP500   0.0000
    46 O1X         40.6160    44.0760    76.4150 O.co2        1 NDP500   0.0000
    47 O2X         39.8290    46.3820    75.8370 O.co2        1 NDP500  -1.0000
    48 O3X         42.2150    45.9120    76.1640 O.co2        1 NDP500  -1.0000
    49 H5B1        37.7069    44.9398    70.8864 H            1 NDP500   0.0000
    50 H5B2        37.9319    43.7842    69.7547 H            1 NDP500   0.0000
    51 H4B         39.0965    42.4447    71.3190 H            1 NDP500   0.0000
    52 H3B         38.2182    43.8869    73.4259 H            1 NDP500   0.0000
    53 H5          39.1405    42.2835    74.5843 H            1 NDP500   0.0000
    54 H2B         39.6374    45.5535    73.0513 H            1 NDP500   0.0000
    55 H1B         41.5967    43.7899    72.2557 H            1 NDP500   0.0000
    56 H8A         40.3053    47.3435    71.5549 H            1 NDP500   0.0000
    57 H6A1        46.1438    49.0380    71.7862 H            1 NDP500   0.0000
    58 H6A2        44.4948    49.5250    71.5775 H            1 NDP500   0.0000
    59 H2A         45.9627    44.5667    72.4237 H            1 NDP500   0.0000
    60 H5D1        37.3601    41.1274    66.8047 H            1 NDP500   0.0000
    61 H5D2        37.4703    42.7155    67.1685 H            1 NDP500   0.0000
    62 H4D         38.2624    42.2074    64.8530 H            1 NDP500   0.0000
    63 H3D         36.8176    44.3827    65.4725 H            1 NDP500   0.0000
    64 H16         38.7498    44.3715    64.1955 H            1 NDP500   0.0000
    65 H2D         34.8334    43.5539    64.7547 H            1 NDP500   0.0000
    66 H18         35.9181    44.7656    62.4509 H            1 NDP500   0.0000
    67 H1D         36.2969    42.3506    62.4902 H            1 NDP500   0.0000
    68 H2N         35.0392    41.1792    61.0590 H            1 NDP500   0.0000
    69 H7N1        33.6820    39.4980    58.2655 H            1 NDP500   0.0000
    70 H7N2        34.7382    40.2406    59.4201 H            1 NDP500   0.0000
    71 H4N         31.2200    39.8907    62.2234 H            1 NDP500   0.0000
    72 H5N         31.5311    40.7344    64.3977 H            1 NDP500   0.0000
    73 H6N         33.5907    41.8104    64.9491 H            1 NDP500   0.0000
@<TRIPOS>BOND
     1    1    2      ar
     2    1    3      ar
     3    1    4       1
     4    1   23       1
     5    4    5       1
     6    5    6       1
     7    6    7       1
     8    6    8       1
     9    7   12       1
    10    8    9       1
    11    8   10       1
    12   10   11       1
    13   10   12       1
    14   11   45       1
    15   12   13       1
    16   13   14       1
    17   13   22       1
    18   14   15       2
    19   15   16       1
    20   16   17      ar
    21   16   22      ar
    22   17   18       1
    23   17   19      ar
    24   19   20      ar
    25   20   21      ar
    26   21   22      ar
    27   23   24       1
    28   24   25      ar
    29   24   26      ar
    30   24   27       1
    31   27   28       1
    32   28   29       1
    33   29   30       1
    34   29   31       1
    35   30   35       1
    36   31   32       1
    37   31   33       1
    38   33   34       1
    39   33   35       1
    40   35   36       1
    41   36   37      ar
    42   36   44      ar
    43   37   38      ar
    44   38   39       1
    45   38   42      ar
    46   39   40       2
    47   39   41      am
    48   42   43      ar
    49   43   44      ar
    50   45   46      ar
    51   45   47      ar
    52   45   48      ar
    53   43   72       1
    54    5   49       1
    55    5   50       1
    56    6   51       1
    57    8   52       1
    58    9   53       1
    59   10   54       1
    60   12   55       1
    61   14   56       1
    62   18   57       1
    63   18   58       1
    64   20   59       1
    65   44   73       1
    66   28   60       1
    67   28   61       1
    68   29   62       1
    69   31   63       1
    70   32   64       1
    71   33   65       1
    72   34   66       1
    73   35   67       1
    74   37   68       1
    75   41   69       1
    76   41   70       1
    77   42   71       1
@<TRIPOS>SUBSTRUCTURE
     1 NDP500      1 GROUP             4 A     NDP     0 **** NDP A 500
