@<TRIPOS>MOLECULE
2ekp_NAD_1_ligand
   70    74     1     0     0
SMALL
NO_CHARGES


@<TRIPOS>ATOM
     1 PA          46.9180    17.6940    75.6730 P.3          1 NAD1300   0.0000
     2 O1A         47.5410    16.8090    74.6690 O.co2        1 NAD1300   0.0000
     3 O2A         47.8620    18.6310    76.3930 O.co2        1 NAD1300  -1.0000
     4 O5B         45.7480    18.5210    74.9400 O.3          1 NAD1300   0.0000
     5 C5B         45.0360    19.4470    75.7420 C.3          1 NAD1300   0.0000
     6 C4B         43.8950    20.1920    74.8030 C.3          1 NAD1300   0.0000
     7 O4B         43.2060    21.0710    75.7030 O.3          1 NAD1300   0.0000
     8 C3B         44.6180    20.9540    73.6590 C.3          1 NAD1300   0.0000
     9 O3B         43.8770    20.8700    72.4390 O.3          1 NAD1300   0.0000
    10 C2B         44.7330    22.3560    74.2440 C.3          1 NAD1300   0.0000
    11 O2B         44.9090    23.4250    73.3480 O.3          1 NAD1300   0.0000
    12 C1B         43.4730    22.3550    75.0520 C.3          1 NAD1300   0.0000
    13 N9A         43.3880    23.4650    76.0320 N.pl3        1 NAD1300   0.0000
    14 C8A         44.2310    23.7670    77.0820 C.2          1 NAD1300   0.0000
    15 N7A         43.7910    24.8720    77.7140 N.2          1 NAD1300   0.0000
    16 C5A         42.6670    25.2880    77.0940 C.ar         1 NAD1300   0.0000
    17 C6A         41.7630    26.3830    77.2790 C.ar         1 NAD1300   0.0000
    18 N6A         41.9510    27.2620    78.2550 N.pl3        1 NAD1300   0.0000
    19 N1A         40.6430    26.5270    76.4130 N.ar         1 NAD1300   0.0000
    20 C2A         40.4060    25.6110    75.3530 C.ar         1 NAD1300   0.0000
    21 N3A         41.2950    24.5400    75.1580 N.ar         1 NAD1300   0.0000
    22 C4A         42.3980    24.3920    76.0150 C.ar         1 NAD1300   0.0000
    23 O3          46.1770    16.8350    76.8120 O.3          1 NAD1300   0.0000
    24 PN          45.5790    15.3460    76.7640 P.3          1 NAD1300   0.0000
    25 O1N         45.2570    14.9710    75.3700 O.co2        1 NAD1300   0.0000
    26 O2N         46.5840    14.5080    77.4630 O.co2        1 NAD1300  -1.0000
    27 O5D         44.3110    15.5750    77.6910 O.3          1 NAD1300   0.0000
    28 C5D         43.0070    15.4560    77.1530 C.3          1 NAD1300   0.0000
    29 C4D         42.0200    14.9410    78.1880 C.3          1 NAD1300   0.0000
    30 O4D         42.3420    13.6170    78.5590 O.3          1 NAD1300   0.0000
    31 C3D         41.9460    15.7180    79.5170 C.3          1 NAD1300   0.0000
    32 O3D         40.5900    15.8020    79.9700 O.3          1 NAD1300   0.0000
    33 C2D         42.8250    14.9400    80.4250 C.3          1 NAD1300   0.0000
    34 O2D         42.6330    15.2930    81.7860 O.3          1 NAD1300   0.0000
    35 C1D         42.4370    13.5520    79.9730 C.3          1 NAD1300   0.0000
    36 N1N         43.3770    12.4430    80.2900 N.ar         1 NAD1300   1.0000
    37 C2N         44.7100    12.4580    79.7800 C.ar         1 NAD1300   0.0000
    38 C3N         45.5710    11.3690    80.1090 C.ar         1 NAD1300   0.0000
    39 C7N         46.9650    11.3390    79.6060 C.2          1 NAD1300   0.0000
    40 O7N         47.7210    10.2820    79.9770 O.2          1 NAD1300   0.0000
    41 N7N         47.5100    12.2660    78.8420 N.am         1 NAD1300   0.0000
    42 C4N         45.0380    10.2820    80.9360 C.ar         1 NAD1300   0.0000
    43 C5N         43.6930    10.2860    81.4320 C.ar         1 NAD1300   0.0000
    44 C6N         42.8640    11.3820    81.0940 C.ar         1 NAD1300   0.0000
    45 H5B1        45.6676    20.1296    76.1096 H            1 NAD1300   0.0000
    46 H5B2        44.5894    18.9657    76.4963 H            1 NAD1300   0.0000
    47 H4B         43.2620    19.5167    74.4245 H            1 NAD1300   0.0000
    48 H3B         45.5315    20.5701    73.5244 H            1 NAD1300   0.0000
    49 H5          44.3620    21.3672    71.7195 H            1 NAD1300   0.0000
    50 H2B         45.5045    22.3598    74.8802 H            1 NAD1300   0.0000
    51 H7          44.4671    23.2068    72.4779 H            1 NAD1300   0.0000
    52 H1B         42.7259    22.4988    74.4030 H            1 NAD1300   0.0000
    53 H8A         45.0452    23.2446    77.3353 H            1 NAD1300   0.0000
    54 H6A1        41.3121    28.0222    78.3732 H            1 NAD1300   0.0000
    55 H6A2        42.7316    27.1643    78.8724 H            1 NAD1300   0.0000
    56 H2A         39.6151    25.7271    74.7521 H            1 NAD1300   0.0000
    57 H5D1        43.0307    14.8194    76.3822 H            1 NAD1300   0.0000
    58 H5D2        42.7041    16.3542    76.8344 H            1 NAD1300   0.0000
    59 H4D         41.1086    14.9376    77.7765 H            1 NAD1300   0.0000
    60 H3D         42.3183    16.6377    79.3921 H            1 NAD1300   0.0000
    61 H17         40.0842    14.9974    79.6589 H            1 NAD1300   0.0000
    62 H2D         43.7791    15.1080    80.1769 H            1 NAD1300   0.0000
    63 H19         42.8378    16.2638    81.9107 H            1 NAD1300   0.0000
    64 H1D         41.5368    13.3298    80.3476 H            1 NAD1300   0.0000
    65 H2N         45.0319    13.2119    79.2072 H            1 NAD1300   0.0000
    66 H7N1        48.4598    12.1729    78.5432 H            1 NAD1300   0.0000
    67 H7N2        46.9734    13.0619    78.5616 H            1 NAD1300   0.0000
    68 H4N         45.6334     9.5110    81.1619 H            1 NAD1300   0.0000
    69 H5N         43.3510     9.5371    81.9996 H            1 NAD1300   0.0000
    70 H6N         41.9187    11.4128    81.4187 H            1 NAD1300   0.0000
@<TRIPOS>BOND
     1    1    2      ar
     2    1    3      ar
     3    1    4       1
     4    1   23       1
     5    4    5       1
     6    5    6       1
     7    6    7       1
     8    6    8       1
     9    7   12       1
    10    8    9       1
    11    8   10       1
    12   10   11       1
    13   10   12       1
    14   12   13       1
    15   13   14       1
    16   13   22       1
    17   14   15       2
    18   15   16       1
    19   16   17      ar
    20   16   22      ar
    21   17   18       1
    22   17   19      ar
    23   19   20      ar
    24   20   21      ar
    25   21   22      ar
    26   23   24       1
    27   24   25      ar
    28   24   26      ar
    29   24   27       1
    30   27   28       1
    31   28   29       1
    32   29   30       1
    33   29   31       1
    34   30   35       1
    35   31   32       1
    36   31   33       1
    37   33   34       1
    38   33   35       1
    39   35   36       1
    40   36   37      ar
    41   36   44      ar
    42   37   38      ar
    43   38   39       1
    44   38   42      ar
    45   39   40       2
    46   39   41      am
    47   42   43      ar
    48   43   44      ar
    49   44   70       1
    50    5   45       1
    51    5   46       1
    52    6   47       1
    53    8   48       1
    54    9   49       1
    55   10   50       1
    56   11   51       1
    57   12   52       1
    58   14   53       1
    59   18   54       1
    60   18   55       1
    61   20   56       1
    62   43   69       1
    63   28   57       1
    64   28   58       1
    65   29   59       1
    66   31   60       1
    67   32   61       1
    68   33   62       1
    69   34   63       1
    70   35   64       1
    71   37   65       1
    72   41   66       1
    73   41   67       1
    74   42   68       1
@<TRIPOS>SUBSTRUCTURE
     1 NAD1300     1 GROUP             4 A     NAD     0 **** NAD A1300
