@<TRIPOS>MOLECULE
2anb_5GP_1_ligand
   38    40     1     0     0
SMALL
NO_CHARGES


@<TRIPOS>ATOM
     1 P           37.1400    17.0210    75.7630 P.3          1 5GP301   0.0000
     2 O1P         37.5750    18.2870    76.3780 O.co2        1 5GP301   0.0000
     3 O2P         36.9370    16.0010    76.8150 O.co2        1 5GP301  -1.0000
     4 O3P         38.1550    16.5740    74.7840 O.co2        1 5GP301  -1.0000
     5 O5'         35.7670    17.2670    74.9620 O.3          1 5GP301   0.0000
     6 C5'         35.0970    16.1590    74.4000 C.3          1 5GP301   0.0000
     7 C4'         33.9090    16.5980    73.5430 C.3          1 5GP301   0.0000
     8 O4'         33.0990    17.5200    74.2540 O.3          1 5GP301   0.0000
     9 C3'         34.3480    17.2680    72.2470 C.3          1 5GP301   0.0000
    10 O3'         33.6590    16.7470    71.1290 O.3          1 5GP301   0.0000
    11 C2'         33.9830    18.7190    72.4440 C.3          1 5GP301   0.0000
    12 O2'         33.6220    19.2860    71.2030 O.3          1 5GP301   0.0000
    13 C1'         32.8470    18.6760    73.4750 C.3          1 5GP301   0.0000
    14 N9          32.7570    19.8460    74.3860 N.pl3        1 5GP301   0.0000
    15 C8          33.7290    20.7520    74.8050 C.3          1 5GP301   0.0000
    16 N7          33.1280    21.9150    75.3040 N.pl3        1 5GP301   0.0000
    17 C5          31.8260    21.7460    75.0380 C.2          1 5GP301   0.0000
    18 C6          30.7180    22.5090    75.3830 C.2          1 5GP301   0.0000
    19 O6          30.8650    23.5440    76.0330 O.2          1 5GP301   0.0000
    20 N1          29.4440    22.1200    75.0070 N.pl3        1 5GP301   0.0000
    21 C2          29.2750    20.9750    74.2690 C.2          1 5GP301   0.0000
    22 N2          28.0420    20.6170    73.9130 N.pl3        1 5GP301   0.0000
    23 N3          30.3830    20.2120    73.9380 N.2          1 5GP301   0.0000
    24 C4          31.6460    20.6050    74.3350 C.2          1 5GP301   0.0000
    25 H5'1        34.7657    15.5711    75.1380 H            1 5GP301   0.0000
    26 H5'2        35.7384    15.6471    73.8285 H            1 5GP301   0.0000
    27 H4'         33.3593    15.7932    73.3188 H            1 5GP301   0.0000
    28 H3'         35.3356    17.1716    72.1228 H            1 5GP301   0.0000
    29 H5          33.1527    17.4817    70.6774 H            1 5GP301   0.0000
    30 H2'         34.7643    19.2135    72.8250 H            1 5GP301   0.0000
    31 H7          34.2360    20.0468    70.9929 H            1 5GP301   0.0000
    32 H1'         31.9755    18.5653    72.9973 H            1 5GP301   0.0000
    33 H9          34.3142    20.9898    74.0297 H            1 5GP301   0.0000
    34 H10         34.2828    20.3324    75.5242 H            1 5GP301   0.0000
    35 H11         33.5688    22.6914    75.7544 H            1 5GP301   0.0000
    36 H12         28.6516    22.6697    75.2714 H            1 5GP301   0.0000
    37 H13         27.8982    19.7862    73.3753 H            1 5GP301   0.0000
    38 H14         27.2604    21.1791    74.1835 H            1 5GP301   0.0000
@<TRIPOS>BOND
     1    1    2      ar
     2    1    3      ar
     3    1    4      ar
     4    1    5       1
     5    5    6       1
     6    6    7       1
     7    7    8       1
     8    7    9       1
     9    8   13       1
    10    9   10       1
    11    9   11       1
    12   11   12       1
    13   11   13       1
    14   13   14       1
    15   14   15       1
    16   14   24       1
    17   15   16       1
    18   16   17       1
    19   17   18       1
    20   17   24       2
    21   18   19       2
    22   18   20       1
    23   20   21       1
    24   21   22       1
    25   21   23       2
    26   23   24       1
    27   22   38       1
    28   22   37       1
    29    6   25       1
    30    6   26       1
    31    7   27       1
    32    9   28       1
    33   10   29       1
    34   11   30       1
    35   12   31       1
    36   13   32       1
    37   15   33       1
    38   15   34       1
    39   16   35       1
    40   20   36       1
@<TRIPOS>SUBSTRUCTURE
     1 5GP301      1 GROUP             4 A     5GP     0 **** 5GP A 301
