@<TRIPOS>MOLECULE
2gv8_NDP_4_ligand
   73    77     1     0     0
SMALL
NO_CHARGES


@<TRIPOS>ATOM
     1 PA           7.6170    18.2300    12.8730 P.3          1 NDP501   0.0000
     2 O1A          8.9980    17.8780    13.0880 O.co2        1 NDP501   0.0000
     3 O2A          6.6480    18.4930    14.0000 O.co2        1 NDP501  -1.0000
     4 O5B          7.6530    19.5100    11.8390 O.3          1 NDP501   0.0000
     5 C5B          7.1020    20.7510    12.2280 C.3          1 NDP501   0.0000
     6 C4B          8.1520    21.7010    11.7000 C.3          1 NDP501   0.0000
     7 O4B          7.4360    22.7370    10.9940 O.3          1 NDP501   0.0000
     8 C3B          9.0210    22.3610    12.7130 C.3          1 NDP501   0.0000
     9 O3B         10.3710    22.4860    12.2030 O.3          1 NDP501   0.0000
    10 C2B          8.4350    23.7120    12.9010 C.3          1 NDP501   0.0000
    11 O2B          9.2610    24.7590    13.4050 O.3          1 NDP501   0.0000
    12 C1B          7.8890    23.9590    11.5520 C.3          1 NDP501   0.0000
    13 N9A          6.8210    24.9920    11.5810 N.pl3        1 NDP501   0.0000
    14 C8A          5.6490    25.0800    12.3950 C.2          1 NDP501   0.0000
    15 N7A          4.9500    26.1700    12.1000 N.2          1 NDP501   0.0000
    16 C5A          5.6400    26.8120    11.0950 C.ar         1 NDP501   0.0000
    17 C6A          5.4260    27.9980    10.3570 C.ar         1 NDP501   0.0000
    18 N6A          4.3460    28.7370    10.5970 N.pl3        1 NDP501   0.0000
    19 N1A          6.3250    28.3680     9.4080 N.ar         1 NDP501   0.0000
    20 C2A          7.4260    27.5930     9.1740 C.ar         1 NDP501   0.0000
    21 N3A          7.7190    26.4520     9.8140 N.ar         1 NDP501   0.0000
    22 C4A          6.7780    26.1120    10.7730 C.ar         1 NDP501   0.0000
    23 O3           6.8940    17.1520    11.9800 O.3          1 NDP501   0.0000
    24 PN           7.0140    16.5290    10.5140 P.3          1 NDP501   0.0000
    25 O1N          8.1130    17.2130     9.8260 O.co2        1 NDP501   0.0000
    26 O2N          5.6240    16.5570     9.9240 O.co2        1 NDP501  -1.0000
    27 O5D          7.3280    14.9980    10.9320 O.3          1 NDP501   0.0000
    28 C5D          6.3640    14.1350    11.6710 C.3          1 NDP501   0.0000
    29 C4D          7.0260    12.7180    11.8490 C.3          1 NDP501   0.0000
    30 O4D          7.1650    12.2170    10.5400 O.3          1 NDP501   0.0000
    31 C3D          8.4590    12.7640    12.4030 C.3          1 NDP501   0.0000
    32 O3D          8.6430    11.6810    13.3090 O.3          1 NDP501   0.0000
    33 C2D          9.3610    12.6740    11.2070 C.3          1 NDP501   0.0000
    34 O2D         10.6240    12.1100    11.5860 O.3          1 NDP501   0.0000
    35 C1D          8.4860    11.7630    10.2910 C.3          1 NDP501   0.0000
    36 N1N          8.7660    11.9450     8.8380 N.ar         1 NDP501   1.0000
    37 C2N          9.5590    10.9340     8.2870 C.ar         1 NDP501   0.0000
    38 C3N          9.8420    11.0140     6.8990 C.ar         1 NDP501   0.0000
    39 C7N         10.6410     9.9470     6.3160 C.2          1 NDP501   0.0000
    40 O7N         11.4269    10.1134     5.3704 O.2          1 NDP501   0.0000
    41 N7N         10.5511     8.6808     6.8320 N.am         1 NDP501   0.0000
    42 C4N          9.3270    12.0950     6.1490 C.ar         1 NDP501   0.0000
    43 C5N          8.5550    13.0940     6.6990 C.ar         1 NDP501   0.0000
    44 C6N          8.2600    13.0200     8.0620 C.ar         1 NDP501   0.0000
    45 P2B          9.9110    24.7410    14.8020 P.3          1 NDP501   0.0000
    46 O1X         10.3610    26.1550    14.9670 O.co2        1 NDP501   0.0000
    47 O2X         11.0260    23.7460    14.7730 O.co2        1 NDP501  -1.0000
    48 O3X          8.8460    24.3590    15.8610 O.co2        1 NDP501  -1.0000
    49 H5B1         7.0103    20.8183    13.2215 H            1 NDP501   0.0000
    50 H5B2         6.2125    20.9098    11.7996 H            1 NDP501   0.0000
    51 H4B          8.7318    21.2103    11.0496 H            1 NDP501   0.0000
    52 H3B          9.0136    21.8496    13.5723 H            1 NDP501   0.0000
    53 H5          10.9469    22.9299    12.8895 H            1 NDP501   0.0000
    54 H2B          7.6591    23.6170    13.5246 H            1 NDP501   0.0000
    55 H1B          8.6324    24.3019    10.9778 H            1 NDP501   0.0000
    56 H8A          5.3905    24.4113    13.0922 H            1 NDP501   0.0000
    57 H6A1         4.1896    29.5772    10.0778 H            1 NDP501   0.0000
    58 H6A2         3.6907    28.4523    11.2966 H            1 NDP501   0.0000
    59 H2A          8.0643    27.9017     8.4688 H            1 NDP501   0.0000
    60 H5D1         5.5144    14.0507    11.1503 H            1 NDP501   0.0000
    61 H5D2         6.1678    14.5338    12.5668 H            1 NDP501   0.0000
    62 H4D          6.4471    12.1190    12.4023 H            1 NDP501   0.0000
    63 H3D          8.6109    13.6313    12.8770 H            1 NDP501   0.0000
    64 H16          8.3936    11.9728    14.2324 H            1 NDP501   0.0000
    65 H2D          9.4872    13.5748    10.7916 H            1 NDP501   0.0000
    66 H18         11.0533    12.6894    12.2788 H            1 NDP501   0.0000
    67 H1D          8.5840    10.8025    10.5516 H            1 NDP501   0.0000
    68 H2N          9.9122    10.1853     8.8480 H            1 NDP501   0.0000
    69 H7N1        11.1130     7.9454     6.4531 H            1 NDP501   0.0000
    70 H7N2         9.9237     8.4921     7.5874 H            1 NDP501   0.0000
    71 H4N          9.5331    12.1367     5.1714 H            1 NDP501   0.0000
    72 H5N          8.2158    13.8499     6.1391 H            1 NDP501   0.0000
    73 H6N          7.6930    13.7235     8.4905 H            1 NDP501   0.0000
@<TRIPOS>BOND
     1    1    2      ar
     2    1    3      ar
     3    1    4       1
     4    1   23       1
     5    4    5       1
     6    5    6       1
     7    6    7       1
     8    6    8       1
     9    7   12       1
    10    8    9       1
    11    8   10       1
    12   10   11       1
    13   10   12       1
    14   11   45       1
    15   12   13       1
    16   13   14       1
    17   13   22       1
    18   14   15       2
    19   15   16       1
    20   16   17      ar
    21   16   22      ar
    22   17   18       1
    23   17   19      ar
    24   19   20      ar
    25   20   21      ar
    26   21   22      ar
    27   23   24       1
    28   24   25      ar
    29   24   26      ar
    30   24   27       1
    31   27   28       1
    32   28   29       1
    33   29   30       1
    34   29   31       1
    35   30   35       1
    36   31   32       1
    37   31   33       1
    38   33   34       1
    39   33   35       1
    40   35   36       1
    41   36   37      ar
    42   36   44      ar
    43   37   38      ar
    44   38   39       1
    45   38   42      ar
    46   39   40       2
    47   39   41      am
    48   42   43      ar
    49   43   44      ar
    50   45   46      ar
    51   45   47      ar
    52   45   48      ar
    53   43   72       1
    54    5   49       1
    55    5   50       1
    56    6   51       1
    57    8   52       1
    58    9   53       1
    59   10   54       1
    60   12   55       1
    61   14   56       1
    62   18   57       1
    63   18   58       1
    64   20   59       1
    65   44   73       1
    66   28   60       1
    67   28   61       1
    68   29   62       1
    69   31   63       1
    70   32   64       1
    71   33   65       1
    72   34   66       1
    73   35   67       1
    74   37   68       1
    75   41   69       1
    76   41   70       1
    77   42   71       1
@<TRIPOS>SUBSTRUCTURE
     1 NDP501      1 GROUP             4 B     NDP     0 **** NDP B 501
