@<TRIPOS>MOLECULE
5ify_UMP_10_ligand
   31    32     1     0     0
SMALL
NO_CHARGES


@<TRIPOS>ATOM
     1 N1         -48.9220    67.6320     9.1250 N.pl3        1 UMP501   0.0000
     2 C2         -49.2220    68.5990     8.1870 C.2          1 UMP501   0.0000
     3 N3         -50.4980    69.1100     8.2640 N.pl3        1 UMP501   0.0000
     4 C4         -51.4850    68.7460     9.1600 C.2          1 UMP501   0.0000
     5 C5         -51.0980    67.7380    10.1020 C.2          1 UMP501   0.0000
     6 C6         -49.8570    67.2260    10.0590 C.2          1 UMP501   0.0000
     7 O2         -48.4300    68.9680     7.3390 O.2          1 UMP501   0.0000
     8 O4         -52.6050    69.2730     9.0880 O.2          1 UMP501   0.0000
     9 C1'        -47.5880    67.0250     9.0730 C.3          1 UMP501   0.0000
    10 C2'        -46.7260    67.3390    10.2840 C.3          1 UMP501   0.0000
    11 C3'        -45.8960    66.0730    10.4310 C.3          1 UMP501   0.0000
    12 C4'        -46.8910    64.9890    10.0270 C.3          1 UMP501   0.0000
    13 O3'        -44.7780    66.1180     9.5470 O.3          1 UMP501   0.0000
    14 O4'        -47.7480    65.6090     9.0420 O.3          1 UMP501   0.0000
    15 C5'        -47.7290    64.5010    11.1840 C.3          1 UMP501   0.0000
    16 O5'        -48.0710    63.1150    11.0230 O.3          1 UMP501   0.0000
    17 P          -48.7010    62.3260    12.3290 P.3          1 UMP501   0.0000
    18 OP1        -48.5110    60.8050    12.0380 O.co2        1 UMP501   0.0000
    19 OP2        -50.2210    62.6230    12.3650 O.co2        1 UMP501  -1.0000
    20 OP3        -47.9330    62.8700    13.5220 O.co2        1 UMP501  -1.0000
    21 H1         -50.7359    69.8200     7.6012 H            1 UMP501   0.0000
    22 H2         -51.7497    67.4168    10.7891 H            1 UMP501   0.0000
    23 H3         -49.6003    66.5266    10.7260 H            1 UMP501   0.0000
    24 H1'        -47.1179    67.3251     8.2430 H            1 UMP501   0.0000
    25 H2'1       -47.2874    67.4999    11.0958 H            1 UMP501   0.0000
    26 H2'2       -46.1447    68.1355    10.1176 H            1 UMP501   0.0000
    27 H3'        -45.5980    65.9493    11.3775 H            1 UMP501   0.0000
    28 H4'        -46.4035    64.2195     9.6145 H            1 UMP501   0.0000
    29 H9         -44.2104    66.9112     9.7676 H            1 UMP501   0.0000
    30 H5'1       -48.5688    65.0418    11.2306 H            1 UMP501   0.0000
    31 H5'2       -47.2123    64.6139    12.0327 H            1 UMP501   0.0000
@<TRIPOS>BOND
     1    1    2       1
     2    1    6       1
     3    1    9       1
     4    2    3       1
     5    2    7       2
     6    3    4       1
     7    4    5       1
     8    4    8       2
     9    5    6       2
    10    9   10       1
    11    9   14       1
    12   10   11       1
    13   11   12       1
    14   11   13       1
    15   12   14       1
    16   12   15       1
    17   15   16       1
    18   16   17       1
    19   17   18      ar
    20   17   19      ar
    21   17   20      ar
    22    3   21       1
    23    5   22       1
    24    6   23       1
    25    9   24       1
    26   10   25       1
    27   10   26       1
    28   11   27       1
    29   12   28       1
    30   13   29       1
    31   15   30       1
    32   15   31       1
@<TRIPOS>SUBSTRUCTURE
     1 UMP501      1 GROUP             4 D     UMP     0 **** UMP D 501
