@<TRIPOS>MOLECULE
2g5w_8PG_1_ligand
   55    55     1     0     0
SMALL
NO_CHARGES


@<TRIPOS>ATOM
     1 CAA         15.7440    19.3500    42.5560 C.3          1 8PG402   0.0000
     2 CAJ         15.3000    18.4420    41.4110 C.3          1 8PG402   0.0000
     3 CAK         15.2530    19.2220    40.0920 C.3          1 8PG402   0.0000
     4 CAO         14.8460    18.3180    38.9250 C.3          1 8PG402   0.0000
     5 CAR         16.0670    17.6970    38.2370 C.3          1 8PG402   0.0000
     6 CAV         15.7030    16.3570    37.5910 C.3          1 8PG402   0.0000
     7 OAE         16.6750    15.3660    37.9480 O.3          1 8PG402   0.0000
     8 CAH         15.6350    16.5100    36.0660 C.2          1 8PG402   0.0000
     9 CAI         16.7650    16.4210    35.2520 C.2          1 8PG402   0.0000
    10 CAW         16.5940    16.5850    33.7280 C.3          1 8PG402   0.0000
    11 CAG         17.7240    17.4260    33.1210 C.2          1 8PG402   0.0000
    12 CAF         18.3650    16.7520    32.1640 C.2          1 8PG402   0.0000
    13 CAU         17.8650    15.5270    32.0090 C.2          1 8PG402   0.0000
    14 OAC         18.2940    14.7210    31.1820 O.2          1 8PG402   0.0000
    15 CAX         16.6940    15.2540    32.9600 C.3          1 8PG402   0.0000
    16 CAS         16.9780    14.0320    33.8580 C.3          1 8PG402   0.0000
    17 CAP         15.7770    13.0780    33.8930 C.3          1 8PG402   0.0000
    18 CAM         15.4980    12.5150    35.2940 C.3          1 8PG402   0.0000
    19 CAL         14.2480    11.6200    35.2680 C.3          1 8PG402   0.0000
    20 CAN         13.8140    11.1600    36.6690 C.3          1 8PG402   0.0000
    21 CAQ         14.0190     9.6450    36.8490 C.3          1 8PG402   0.0000
    22 CAT         12.9830     9.0000    37.7880 C.2          1 8PG402   0.0000
    23 OAD         13.3810     8.6430    38.9220 O.co2        1 8PG402   0.0000
    24 OAB         11.8190     8.8640    37.3460 O.co2        1 8PG402  -1.0000
    25 HAA1        15.7689    18.8254    43.4070 H            1 8PG402   0.0000
    26 HAA2        16.6556    19.7115    42.3605 H            1 8PG402   0.0000
    27 HAA3        15.0982    20.1076    42.6502 H            1 8PG402   0.0000
    28 HAJ1        14.3894    18.0808    41.6120 H            1 8PG402   0.0000
    29 HAJ2        15.9469    17.6846    41.3222 H            1 8PG402   0.0000
    30 HAK1        16.1583    19.6045    39.9073 H            1 8PG402   0.0000
    31 HAK2        14.5883    19.9644    40.1761 H            1 8PG402   0.0000
    32 HAO1        14.3383    18.8610    38.2561 H            1 8PG402   0.0000
    33 HAO2        14.2614    17.5845    39.2717 H            1 8PG402   0.0000
    34 HAR1        16.7862    17.5492    38.9159 H            1 8PG402   0.0000
    35 HAR2        16.3988    18.3223    37.5306 H            1 8PG402   0.0000
    36 HAV         14.8069    16.0679    37.9278 H            1 8PG402   0.0000
    37 HAE         16.4327    14.4934    37.5238 H            1 8PG402   0.0000
    38 HAH         14.7469    16.6800    35.6389 H            1 8PG402   0.0000
    39 HAI         17.6676    16.2542    35.6489 H            1 8PG402   0.0000
    40 HAW         15.7135    17.0178    33.5346 H            1 8PG402   0.0000
    41 HAG         17.9508    18.3576    33.4052 H            1 8PG402   0.0000
    42 HAF         19.1258    17.1206    31.6298 H            1 8PG402   0.0000
    43 HAX         15.8574    15.1018    32.4338 H            1 8PG402   0.0000
    44 HAS1        17.1709    14.3477    34.7870 H            1 8PG402   0.0000
    45 HAS2        17.7732    13.5423    33.5005 H            1 8PG402   0.0000
    46 HAP1        15.9584    12.3145    33.2732 H            1 8PG402   0.0000
    47 HAP2        14.9666    13.5745    33.5820 H            1 8PG402   0.0000
    48 HAM1        15.3491    13.2718    35.9304 H            1 8PG402   0.0000
    49 HAM2        16.2841    11.9756    35.5957 H            1 8PG402   0.0000
    50 HAL1        14.4456    10.8116    34.7135 H            1 8PG402   0.0000
    51 HAL2        13.4965    12.1331    34.8534 H            1 8PG402   0.0000
    52 HAN1        12.8459    11.3752    36.7971 H            1 8PG402   0.0000
    53 HAN2        14.3569    11.6458    37.3540 H            1 8PG402   0.0000
    54 HAQ1        14.9313     9.4906    37.2283 H            1 8PG402   0.0000
    55 HAQ2        13.9520     9.2065    35.9528 H            1 8PG402   0.0000
@<TRIPOS>BOND
     1    1    2       1
     2    2    3       1
     3    3    4       1
     4    4    5       1
     5    5    6       1
     6    6    7       1
     7    6    8       1
     8    8    9       2
     9    9   10       1
    10   10   11       1
    11   10   15       1
    12   11   12       2
    13   12   13       1
    14   13   14       2
    15   13   15       1
    16   15   16       1
    17   16   17       1
    18   17   18       1
    19   18   19       1
    20   19   20       1
    21   20   21       1
    22   21   22       1
    23   22   23      ar
    24   22   24      ar
    25    1   25       1
    26    1   26       1
    27    1   27       1
    28    2   28       1
    29    2   29       1
    30    3   30       1
    31    3   31       1
    32    4   32       1
    33    4   33       1
    34    5   34       1
    35    5   35       1
    36    6   36       1
    37    7   37       1
    38    8   38       1
    39    9   39       1
    40   10   40       1
    41   11   41       1
    42   12   42       1
    43   15   43       1
    44   16   44       1
    45   16   45       1
    46   17   46       1
    47   17   47       1
    48   18   48       1
    49   18   49       1
    50   19   50       1
    51   19   51       1
    52   20   52       1
    53   20   53       1
    54   21   54       1
    55   21   55       1
@<TRIPOS>SUBSTRUCTURE
     1 8PG402      1 GROUP             4 A     8PG     0 **** 8PG A 402
