@<TRIPOS>MOLECULE
1zgy_BRL_1_ligand
   44    46     1     0     0
SMALL
NO_CHARGES


@<TRIPOS>ATOM
     1 S1          33.2740    -2.1370    27.6560 S.3          1 BRL503   0.0000
     2 O2          34.7450    -3.9680    28.8790 O.2          1 BRL503   0.0000
     3 O4          32.6000    -4.8780    25.0490 O.2          1 BRL503   0.0000
     4 O13         30.5660     3.5910    25.8980 O.3          1 BRL503   0.0000
     5 N3          33.7730    -4.6340    26.9640 N.am         1 BRL503   0.0000
     6 N16         28.8930     5.0360    28.2980 N.pl3        1 BRL503   0.0000
     7 N18         26.7060     3.6320    28.3980 N.ar         1 BRL503   0.0000
     8 C2          34.0440    -3.7150    27.8970 C.2          1 BRL503   0.0000
     9 C4          32.9600    -4.1540    25.9690 C.2          1 BRL503   0.0000
    10 C5          32.4730    -2.6660    26.1070 C.3          1 BRL503   0.0000
    11 C6          32.9140    -1.6840    24.8510 C.3          1 BRL503   0.0000
    12 C7          32.2820    -0.2640    25.0220 C.ar         1 BRL503   0.0000
    13 C8          30.9410     0.0080    24.5450 C.ar         1 BRL503   0.0000
    14 C9          30.3320     1.2760    24.7730 C.ar         1 BRL503   0.0000
    15 C10         31.0630     2.3130    25.5140 C.ar         1 BRL503   0.0000
    16 C11         32.4000     2.0510    25.9500 C.ar         1 BRL503   0.0000
    17 C12         33.0030     0.7900    25.7130 C.ar         1 BRL503   0.0000
    18 C14         29.1160     3.7690    26.0650 C.3          1 BRL503   0.0000
    19 C15         28.8850     5.1300    26.7750 C.3          1 BRL503   0.0000
    20 C16         30.0090     5.7310    29.0460 C.3          1 BRL503   0.0000
    21 C17         27.7710     4.2640    29.0830 C.ar         1 BRL503   0.0000
    22 C19         25.7270     2.9500    29.0790 C.ar         1 BRL503   0.0000
    23 C20         25.7180     2.8630    30.4960 C.ar         1 BRL503   0.0000
    24 C21         26.7610     3.4660    31.2350 C.ar         1 BRL503   0.0000
    25 C22         27.7850     4.1660    30.5550 C.ar         1 BRL503   0.0000
    26 H1          34.1249    -5.5697    26.9890 H            1 BRL503   0.0000
    27 H2          31.4793    -2.6457    26.2176 H            1 BRL503   0.0000
    28 H3          32.5961    -2.0850    23.9918 H            1 BRL503   0.0000
    29 H4          33.9104    -1.6011    24.8316 H            1 BRL503   0.0000
    30 H5          30.4380    -0.7011    24.0509 H            1 BRL503   0.0000
    31 H6          29.4107     1.4593    24.4300 H            1 BRL503   0.0000
    32 H7          32.9142     2.7641    26.4265 H            1 BRL503   0.0000
    33 H8          33.9381     0.6241    26.0262 H            1 BRL503   0.0000
    34 H9          28.7439     3.0268    26.6224 H            1 BRL503   0.0000
    35 H10         28.6681     3.7712    25.1709 H            1 BRL503   0.0000
    36 H11         29.6090     5.7598    26.4937 H            1 BRL503   0.0000
    37 H12         27.9984     5.4907    26.4855 H            1 BRL503   0.0000
    38 H13         29.8910     5.5883    30.0287 H            1 BRL503   0.0000
    39 H14         30.8890     5.3537    28.7577 H            1 BRL503   0.0000
    40 H15         29.9847     6.7105    28.8462 H            1 BRL503   0.0000
    41 H16         24.9988     2.5013    28.5610 H            1 BRL503   0.0000
    42 H17         24.9803     2.3794    30.9670 H            1 BRL503   0.0000
    43 H18         26.7750     3.3982    32.2326 H            1 BRL503   0.0000
    44 H19         28.5226     4.5969    31.0750 H            1 BRL503   0.0000
@<TRIPOS>BOND
     1    1    8       1
     2    1   10       1
     3    2    8       2
     4    3    9       2
     5    4   15       1
     6    4   18       1
     7    5    8      am
     8    5    9      am
     9    6   19       1
    10    6   20       1
    11    6   21       1
    12    7   21      ar
    13    7   22      ar
    14    9   10       1
    15   10   11       1
    16   11   12       1
    17   12   13      ar
    18   12   17      ar
    19   13   14      ar
    20   14   15      ar
    21   15   16      ar
    22   16   17      ar
    23   18   19       1
    24   21   25      ar
    25   22   23      ar
    26   23   24      ar
    27   24   25      ar
    28    5   26       1
    29   10   27       1
    30   11   28       1
    31   11   29       1
    32   13   30       1
    33   14   31       1
    34   16   32       1
    35   17   33       1
    36   18   34       1
    37   18   35       1
    38   19   36       1
    39   19   37       1
    40   20   38       1
    41   20   39       1
    42   20   40       1
    43   22   41       1
    44   23   42       1
    45   24   43       1
    46   25   44       1
@<TRIPOS>SUBSTRUCTURE
     1 BRL503      1 GROUP             4 A     BRL     0 **** BRL A 503
