@<TRIPOS>MOLECULE
3x1w_GDP_1_ligand
   40    42     1     0     0
SMALL
NO_CHARGES


@<TRIPOS>ATOM
     1 PB         -11.4570     4.8000    -6.5500 P.3          1 GDP201   0.0000
     2 O1B        -11.6100     5.6050    -7.8250 O.co2        1 GDP201   0.0000
     3 O2B        -11.1350     5.6730    -5.3500 O.co2        1 GDP201  -1.0000
     4 O3B        -10.4390     3.6890    -6.7480 O.co2        1 GDP201  -1.0000
     5 O3A        -12.8520     4.0780    -6.3000 O.3          1 GDP201   0.0000
     6 PA         -14.0240     4.4580    -5.2960 P.3          1 GDP201   0.0000
     7 O1A        -14.4300     5.8840    -5.5500 O.co2        1 GDP201   0.0000
     8 O2A        -13.6690     4.1410    -3.8580 O.co2        1 GDP201  -1.0000
     9 O5'        -15.1880     3.4670    -5.7040 O.3          1 GDP201   0.0000
    10 C5'        -15.7550     3.5120    -7.0170 C.3          1 GDP201   0.0000
    11 C4'        -17.1120     2.9050    -7.0550 C.3          1 GDP201   0.0000
    12 O4'        -16.9890     1.4420    -6.7250 O.3          1 GDP201   0.0000
    13 C3'        -18.0130     3.4940    -6.0610 C.3          1 GDP201   0.0000
    14 O3'        -19.3520     3.4920    -6.6190 O.3          1 GDP201   0.0000
    15 C2'        -17.9200     2.6080    -4.9060 C.3          1 GDP201   0.0000
    16 O2'        -19.1060     2.6490    -4.0800 O.3          1 GDP201   0.0000
    17 C1'        -17.7480     1.2530    -5.4470 C.3          1 GDP201   0.0000
    18 N9         -17.0290     0.3560    -4.6530 N.pl3        1 GDP201   0.0000
    19 C8         -15.8810     0.5750    -4.1120 C.2          1 GDP201   0.0000
    20 N7         -15.4990    -0.5370    -3.4780 N.2          1 GDP201   0.0000
    21 C5         -16.4890    -1.5000    -3.6750 C.2          1 GDP201   0.0000
    22 C6         -16.6830    -2.8960    -3.2780 C.2          1 GDP201   0.0000
    23 O6         -15.8740    -3.5140    -2.5750 O.2          1 GDP201   0.0000
    24 N1         -17.8380    -3.5280    -3.6950 N.pl3        1 GDP201   0.0000
    25 C2         -18.8110    -2.8480    -4.4930 C.2          1 GDP201   0.0000
    26 N2         -19.9580    -3.5590    -4.8950 N.pl3        1 GDP201   0.0000
    27 N3         -18.6470    -1.5670    -4.8800 N.2          1 GDP201   0.0000
    28 C4         -17.4620    -0.8630    -4.4730 C.2          1 GDP201   0.0000
    29 H5'1       -15.1588     3.0108    -7.6442 H            1 GDP201   0.0000
    30 H5'2       -15.8192     4.4662    -7.3091 H            1 GDP201   0.0000
    31 H4'        -17.5031     3.0121    -7.9691 H            1 GDP201   0.0000
    32 H3'        -17.7259     4.4221    -5.8237 H            1 GDP201   0.0000
    33 H5         -19.9889     3.8901    -5.9587 H            1 GDP201   0.0000
    34 H2'        -17.1207     2.8543    -4.3578 H            1 GDP201   0.0000
    35 H7         -19.2457     3.5802    -3.7433 H            1 GDP201   0.0000
    36 H1'        -18.6462     0.8641    -5.6521 H            1 GDP201   0.0000
    37 H9         -15.3646     1.4301    -4.1585 H            1 GDP201   0.0000
    38 H10        -20.6550    -3.1091    -5.4534 H            1 GDP201   0.0000
    39 H11        -20.0756    -4.5138    -4.6221 H            1 GDP201   0.0000
    40 H12        -17.9972    -4.4801    -3.4338 H            1 GDP201   0.0000
@<TRIPOS>BOND
     1    1    2      ar
     2    1    3      ar
     3    1    4      ar
     4    1    5       1
     5    5    6       1
     6    6    7      ar
     7    6    8      ar
     8    6    9       1
     9    9   10       1
    10   10   11       1
    11   11   12       1
    12   11   13       1
    13   12   17       1
    14   13   14       1
    15   13   15       1
    16   15   16       1
    17   15   17       1
    18   17   18       1
    19   18   19       1
    20   18   28       1
    21   19   20       2
    22   20   21       1
    23   21   22       1
    24   21   28       2
    25   22   23       2
    26   22   24       1
    27   24   25       1
    28   25   26       1
    29   25   27       2
    30   27   28       1
    31   24   40       1
    32   26   39       1
    33   26   38       1
    34   10   29       1
    35   10   30       1
    36   11   31       1
    37   13   32       1
    38   14   33       1
    39   15   34       1
    40   16   35       1
    41   17   36       1
    42   19   37       1
@<TRIPOS>SUBSTRUCTURE
     1 GDP201      1 GROUP             4 A     GDP     0 **** GDP A 201
