@<TRIPOS>MOLECULE
2cww_SAH_2_ligand
   46    48     1     0     0
SMALL
NO_CHARGES


@<TRIPOS>ATOM
     1 N           73.0400    28.9860    18.8720 N.4          1 SAH501   1.0000
     2 CA          71.8460    28.8410    19.7400 C.3          1 SAH501   0.0000
     3 CB          71.0430    30.1440    19.7610 C.3          1 SAH501   0.0000
     4 CG          71.7620    31.2180    20.5680 C.3          1 SAH501   0.0000
     5 SD          70.5080    32.3470    21.2340 S.3          1 SAH501   0.0000
     6 C           70.9550    27.7130    19.2340 C.2          1 SAH501   0.0000
     7 O           71.0410    27.3350    18.0820 O.co2        1 SAH501   0.0000
     8 OXT         70.0600    27.1250    20.0640 O.co2        1 SAH501  -1.0000
     9 C5'         71.5050    33.8330    21.5870 C.3          1 SAH501   0.0000
    10 C4'         72.4410    33.5870    22.7870 C.3          1 SAH501   0.0000
    11 O4'         73.3540    34.6950    22.9370 O.3          1 SAH501   0.0000
    12 C3'         71.6430    33.4540    24.0970 C.3          1 SAH501   0.0000
    13 O3'         71.8440    32.1490    24.6810 O.3          1 SAH501   0.0000
    14 C2'         72.1810    34.5900    24.9840 C.3          1 SAH501   0.0000
    15 O2'         72.2320    34.2050    26.3640 O.3          1 SAH501   0.0000
    16 C1'         73.5780    34.8930    24.3530 C.3          1 SAH501   0.0000
    17 N9          74.0190    36.2940    24.5880 N.pl3        1 SAH501   0.0000
    18 C8          73.2090    37.4030    24.7460 C.2          1 SAH501   0.0000
    19 N7          73.9340    38.4740    24.9320 N.2          1 SAH501   0.0000
    20 C5          75.2500    38.1420    24.9070 C.ar         1 SAH501   0.0000
    21 C6          76.4690    38.8640    25.0500 C.ar         1 SAH501   0.0000
    22 N6          76.4470    40.2380    25.2720 N.pl3        1 SAH501   0.0000
    23 N1          77.6420    38.1890    24.9670 N.ar         1 SAH501   0.0000
    24 C2          77.6750    36.8630    24.7560 C.ar         1 SAH501   0.0000
    25 N3          76.5510    36.1440    24.6180 N.ar         1 SAH501   0.0000
    26 C4          75.3320    36.7330    24.6850 C.ar         1 SAH501   0.0000
    27 H1          73.5548    28.1287    18.8673 H            1 SAH501   0.0000
    28 H2          72.7502    29.2059    17.9405 H            1 SAH501   0.0000
    29 HA          72.1442    28.6276    20.6704 H            1 SAH501   0.0000
    30 HB1         70.1485    29.9699    20.1729 H            1 SAH501   0.0000
    31 HB2         70.9207    30.4675    18.8227 H            1 SAH501   0.0000
    32 HG1         72.3932    31.7212    19.9777 H            1 SAH501   0.0000
    33 HG2         72.2716    30.7957    21.3177 H            1 SAH501   0.0000
    34 H5'1        70.8940    34.5960    21.7980 H            1 SAH501   0.0000
    35 H5'2        72.0546    34.0586    20.7826 H            1 SAH501   0.0000
    36 H4'         72.9628    32.7482    22.6319 H            1 SAH501   0.0000
    37 H3'         70.6700    33.5976    23.9165 H            1 SAH501   0.0000
    38 H12         72.8157    32.0179    24.8777 H            1 SAH501   0.0000
    39 H2'         71.5928    35.3928    24.8862 H            1 SAH501   0.0000
    40 H14         72.8337    33.4129    26.4671 H            1 SAH501   0.0000
    41 H1'         74.2630    34.2485    24.6927 H            1 SAH501   0.0000
    42 H16         72.2094    37.3877    24.7214 H            1 SAH501   0.0000
    43 H17         77.3048    40.7421    25.3720 H            1 SAH501   0.0000
    44 H18         75.5734    40.7209    25.3315 H            1 SAH501   0.0000
    45 H19         78.5597    36.4001    24.7004 H            1 SAH501   0.0000
    46 H20         73.6199    29.7212    19.2230 H            1 SAH501   0.0000
@<TRIPOS>BOND
     1    1    2       1
     2    2    3       1
     3    2    6       1
     4    3    4       1
     5    4    5       1
     6    5    9       1
     7    6    7      ar
     8    6    8      ar
     9    9   10       1
    10   10   11       1
    11   10   12       1
    12   11   16       1
    13   12   13       1
    14   12   14       1
    15   14   15       1
    16   14   16       1
    17   16   17       1
    18   17   18       1
    19   17   26       1
    20   18   19       2
    21   19   20       1
    22   20   21      ar
    23   20   26      ar
    24   21   22       1
    25   21   23      ar
    26   23   24      ar
    27   24   25      ar
    28   25   26      ar
    29    1   27       1
    30    1   28       1
    31    2   29       1
    32    3   30       1
    33    3   31       1
    34    4   32       1
    35    4   33       1
    36    1   46       1
    37    9   34       1
    38    9   35       1
    39   10   36       1
    40   12   37       1
    41   13   38       1
    42   14   39       1
    43   15   40       1
    44   16   41       1
    45   18   42       1
    46   22   43       1
    47   22   44       1
    48   24   45       1
@<TRIPOS>SUBSTRUCTURE
     1 SAH501      1 GROUP             4 B     SAH     0 **** SAH B 501
