@<TRIPOS>MOLECULE
3kpj_SAH_2_ligand
   46    48     1     0     0
SMALL
NO_CHARGES


@<TRIPOS>ATOM
     1 N           28.0290    51.6160   -27.1300 N.4          1 SAH3002   1.0000
     2 CA          28.8990    52.5970   -26.4830 C.3          1 SAH3002   0.0000
     3 CB          29.8140    53.3530   -27.4560 C.3          1 SAH3002   0.0000
     4 CG          29.1690    53.9330   -28.7230 C.3          1 SAH3002   0.0000
     5 SD          30.2590    55.1070   -29.5820 S.3          1 SAH3002   0.0000
     6 C           28.0600    53.5540   -25.6330 C.2          1 SAH3002   0.0000
     7 O           26.8820    53.2790   -25.3530 O.co2        1 SAH3002   0.0000
     8 OXT         28.5540    54.6000   -25.2000 O.co2        1 SAH3002  -1.0000
     9 C5'         30.0840    54.3490   -31.2240 C.3          1 SAH3002   0.0000
    10 C4'         30.9380    53.0940   -31.4100 C.3          1 SAH3002   0.0000
    11 O4'         30.7940    52.5470   -32.7070 O.3          1 SAH3002   0.0000
    12 C3'         32.4360    53.2850   -31.2040 C.3          1 SAH3002   0.0000
    13 O3'         32.8260    52.5290   -30.0860 O.3          1 SAH3002   0.0000
    14 C2'         33.0630    52.7550   -32.4920 C.3          1 SAH3002   0.0000
    15 O2'         34.2710    52.0430   -32.3570 O.3          1 SAH3002   0.0000
    16 C1'         31.9820    51.8470   -33.0340 C.3          1 SAH3002   0.0000
    17 N9          32.0600    51.6710   -34.4890 N.pl3        1 SAH3002   0.0000
    18 C8          32.6710    52.5050   -35.3790 C.2          1 SAH3002   0.0000
    19 N7          32.4970    51.9990   -36.6250 N.2          1 SAH3002   0.0000
    20 C5          31.7740    50.8590   -36.5480 C.ar         1 SAH3002   0.0000
    21 C6          31.3140    49.9500   -37.5070 C.ar         1 SAH3002   0.0000
    22 N6          31.5590    50.1100   -38.8160 N.pl3        1 SAH3002   0.0000
    23 N1          30.5820    48.8560   -37.0980 N.ar         1 SAH3002   0.0000
    24 C2          30.3260    48.6690   -35.7560 C.ar         1 SAH3002   0.0000
    25 N3          30.7890    49.5650   -34.8120 N.ar         1 SAH3002   0.0000
    26 C4          31.4980    50.6460   -35.2020 C.ar         1 SAH3002   0.0000
    27 H1          27.8450    50.8645   -26.4964 H            1 SAH3002   0.0000
    28 H2          27.1674    52.0533   -27.3877 H            1 SAH3002   0.0000
    29 HA          29.4924    52.0927   -25.8557 H            1 SAH3002   0.0000
    30 HB1         30.5314    52.7200   -27.7470 H            1 SAH3002   0.0000
    31 HB2         30.2245    54.1135   -26.9528 H            1 SAH3002   0.0000
    32 HG1         28.3263    54.4063   -28.4663 H            1 SAH3002   0.0000
    33 HG2         28.9526    53.1812   -29.3459 H            1 SAH3002   0.0000
    34 H5'1        30.3544    55.0210   -31.9134 H            1 SAH3002   0.0000
    35 H5'2        29.1244    54.1017   -31.3579 H            1 SAH3002   0.0000
    36 H4'         30.6234    52.4094   -30.7524 H            1 SAH3002   0.0000
    37 H3'         32.6562    54.2517   -31.0734 H            1 SAH3002   0.0000
    38 H12         32.6221    51.5636   -30.2488 H            1 SAH3002   0.0000
    39 H2'         33.2003    53.5156   -33.1265 H            1 SAH3002   0.0000
    40 H14         34.1231    51.2426   -31.7760 H            1 SAH3002   0.0000
    41 H1'         32.0048    50.9604   -32.5720 H            1 SAH3002   0.0000
    42 H16         33.1629    53.3454   -35.1515 H            1 SAH3002   0.0000
    43 H17         31.2150    49.4407   -39.4745 H            1 SAH3002   0.0000
    44 H18         32.0857    50.8986   -39.1334 H            1 SAH3002   0.0000
    45 H19         29.7973    47.8729   -35.4617 H            1 SAH3002   0.0000
    46 H20         28.4796    51.2593   -27.9484 H            1 SAH3002   0.0000
@<TRIPOS>BOND
     1    1    2       1
     2    2    3       1
     3    2    6       1
     4    3    4       1
     5    4    5       1
     6    5    9       1
     7    6    7      ar
     8    6    8      ar
     9    9   10       1
    10   10   11       1
    11   10   12       1
    12   11   16       1
    13   12   13       1
    14   12   14       1
    15   14   15       1
    16   14   16       1
    17   16   17       1
    18   17   18       1
    19   17   26       1
    20   18   19       2
    21   19   20       1
    22   20   21      ar
    23   20   26      ar
    24   21   22       1
    25   21   23      ar
    26   23   24      ar
    27   24   25      ar
    28   25   26      ar
    29    1   27       1
    30    1   28       1
    31    2   29       1
    32    3   30       1
    33    3   31       1
    34    4   32       1
    35    4   33       1
    36    1   46       1
    37    9   34       1
    38    9   35       1
    39   10   36       1
    40   12   37       1
    41   13   38       1
    42   14   39       1
    43   15   40       1
    44   16   41       1
    45   18   42       1
    46   22   43       1
    47   22   44       1
    48   24   45       1
@<TRIPOS>SUBSTRUCTURE
     1 SAH3002     1 GROUP             4 B     SAH     0 **** SAH B3002
