@<TRIPOS>MOLECULE
./coach420/1txc/ligand.pdb
 61 63 0 0 0
SMALL
GASTEIGER

@<TRIPOS>ATOM
      1  C1         9.8430   22.8240   20.5390 C.ar  715  2AN715      0.0717
      2  C2        10.1920   23.3460   21.8730 C.ar  715  2AN715      0.0165
      3  C3        11.4570   23.1400   22.4790 C.ar  715  2AN715      0.0013
      4  C4        12.4630   22.3940   21.7720 C.ar  715  2AN715      0.0001
      5  C5        12.2090   21.8600   20.4830 C.ar  715  2AN715      0.0025
      6  C6        13.2790   21.1290   19.8490 C.ar  715  2AN715      0.0001
      7  C7        13.0800   20.5740   18.5630 C.ar  715  2AN715      0.0013
      8  C8        11.8250   20.7280   17.8850 C.ar  715  2AN715      0.0189
      9  N          8.5620   23.0900   20.0420 N.pl3 715  2AN715     -0.2124
     10  S          9.5330   21.4370   17.5190 S.3   715  2AN715      0.0421
     11  C9        10.6960   21.4380   18.4290 C.ar  715  2AN715      0.1135
     12  C10       10.8680   22.0470   19.7920 C.ar  715  2AN715      0.0329
     13  C11        7.2810   22.8640   20.6130 C.ar  715  2AN715      0.0705
     14  C12        6.1360   23.4630   19.9500 C.ar  715  2AN715      0.0165
     15  C13        4.7890   23.2710   20.4820 C.ar  715  2AN715      0.0013
     16  C14        4.5720   22.4850   21.6740 C.ar  715  2AN715      0.0001
     17  C15        5.6870   21.8930   22.3290 C.ar  715  2AN715      0.0013
     18  C16        7.0270   22.0680   21.8230 C.ar  715  2AN715      0.0165
     19  O1         9.0460   23.0470   17.1040 O.3   715  2AN715     -0.0650
     20  O2         9.9360   20.5270   16.0140 O.3   715  2AN715     -0.0650
     21  O3         8.1930   20.5940   18.3230 O.3   715  2AN715     -0.0650
     22  C2        16.0810   26.0850   19.4350 C.3   716  2AN716      0.0307
     23  C3        15.4110   27.3040   19.1640 C.2   716  2AN716     -0.0258
     24  C4        14.6240   27.9220   20.1940 C.2   716  2AN716     -0.0045
     25  C5        14.5150   27.3280   21.4820 C.ar  716  2AN716      0.0010
     26  C6        13.7080   28.0180   22.4600 C.ar  716  2AN716      0.0001
     27  C7        13.5660   27.4770   23.7660 C.ar  716  2AN716      0.0013
     28  C8        14.2210   26.2540   24.1270 C.ar  716  2AN716      0.0189
     29  N         16.7210   24.1940   20.9110 N.pl3 716  2AN716     -0.1281
     30  S         15.6210   24.2630   23.8760 S.3   716  2AN716      0.0421
     31  C9        15.0530   25.4810   23.2280 C.ar  716  2AN716      0.1123
     32  C10       15.2200   26.0220   21.8260 C.ar  716  2AN716      0.0189
     33  C11       16.7860   22.9960   20.1390 C.ar  716  2AN716      0.0891
     34  C12       17.1260   21.7640   20.8450 C.ar  716  2AN716      0.0181
     35  C13       17.2250   20.5070   20.1250 C.ar  716  2AN716      0.0014
     36  C14       16.9860   20.4560   18.6950 C.ar  716  2AN716      0.0001
     37  C15       16.6550   21.6460   18.0000 C.ar  716  2AN716      0.0014
     38  C16       16.5530   22.9010   18.6920 C.ar  716  2AN716      0.0181
     39  O1        17.3580   24.3260   23.8500 O.3   716  2AN716     -0.0650
     40  O2        15.0640   24.1400   25.5970 O.3   716  2AN716     -0.0650
     41  O3        15.0870   22.7980   23.0290 O.3   716  2AN716     -0.0650
     42  C2        -5.7850   23.4120   28.7260 C.3   717  2AN717      0.0307
     43  C3        -7.0330   23.0080   28.1850 C.2   717  2AN717     -0.0258
     44  C4        -8.0450   22.4560   29.0590 C.2   717  2AN717     -0.0045
     45  C5        -7.8040   22.3100   30.4520 C.ar  717  2AN717      0.0010
     46  C6        -8.8580   21.7510   31.2630 C.ar  717  2AN717      0.0001
     47  C7        -8.6700   21.5810   32.6570 C.ar  717  2AN717      0.0013
     48  C8        -7.4340   21.9570   33.2690 C.ar  717  2AN717      0.0189
     49  N         -4.2110   23.7130   30.6290 N.pl3 717  2AN717     -0.1281
     50  S         -5.1650   22.8190   33.3830 S.3   717  2AN717      0.0421
     51  C9        -6.3240   22.5220   32.5430 C.ar  717  2AN717      0.1123
     52  C10       -6.4920   22.7200   31.0720 C.ar  717  2AN717      0.0189
     53  C11       -2.9170   23.6280   30.0740 C.ar  717  2AN717      0.0891
     54  C12       -1.9620   24.6760   30.4350 C.ar  717  2AN717      0.0181
     55  C13       -0.6060   24.6460   29.9000 C.ar  717  2AN717      0.0014
     56  C14       -0.1840   23.5810   29.0040 C.ar  717  2AN717      0.0001
     57  C15       -1.1100   22.5600   28.6520 C.ar  717  2AN717      0.0014
     58  C16       -2.4600   22.5660   29.1700 C.ar  717  2AN717      0.0181
     59  O1        -4.7650   24.5100   33.3060 O.3   717  2AN717     -0.0650
     60  O2        -5.4840   22.3620   35.1010 O.3   717  2AN717     -0.0650
     61  O3        -3.8060   21.8390   32.7730 O.3   717  2AN717     -0.0650
@<TRIPOS>BOND
     1     1    12   ar
     2     1     9    1
     3     1     2   ar
     4     2     3   ar
     5     3     4   ar
     6     4     5   ar
     7     5    12   ar
     8     5     6   ar
     9     6     7   ar
    10     7     8   ar
    11     8    11   ar
    12     9    13    1
    13    10    20    1
    14    10    19    1
    15    10    21    1
    16    10    11    1
    17    11    12   ar
    18    13    14   ar
    19    13    18   ar
    20    14    15   ar
    21    15    16   ar
    22    16    17   ar
    23    17    18   ar
    24    22    23    1
    25    23    24    2
    26    24    25    1
    27    25    32   ar
    28    25    26   ar
    29    26    27   ar
    30    27    28   ar
    31    28    31   ar
    32    29    33    1
    33    30    41    1
    34    30    31    1
    35    30    39    1
    36    30    40    1
    37    31    32   ar
    38    33    38   ar
    39    33    34   ar
    40    34    35   ar
    41    35    36   ar
    42    36    37   ar
    43    37    38   ar
    44    42    43    1
    45    43    44    2
    46    44    45    1
    47    45    52   ar
    48    45    46   ar
    49    46    47   ar
    50    47    48   ar
    51    48    51   ar
    52    49    53    1
    53    50    51    1
    54    50    61    1
    55    50    59    1
    56    50    60    1
    57    51    52   ar
    58    53    58   ar
    59    53    54   ar
    60    54    55   ar
    61    55    56   ar
    62    56    57   ar
    63    57    58   ar
