@<TRIPOS>MOLECULE
1zxm_ANP_2_ligand
   44    46     1     0     0
SMALL
NO_CHARGES


@<TRIPOS>ATOM
     1 PG          59.7210    12.4680    27.5390 P.3          1 ANP902   0.0000
     2 O1G         60.9950    11.7870    27.1730 O.co2        1 ANP902   0.0000
     3 O2G         58.6750    12.4560    26.3340 O.co2        1 ANP902  -1.0000
     4 O3G         58.9900    11.7010    28.7310 O.co2        1 ANP902  -1.0000
     5 PB          61.3060    14.5110    28.4760 P.3          1 ANP902   0.0000
     6 O1B         62.3700    14.1170    27.5190 O.co2        1 ANP902   0.0000
     7 O2B         61.2080    15.9710    28.7070 O.co2        1 ANP902  -1.0000
     8 N3B         59.8290    14.0550    27.9310 N.3          1 ANP902   0.0000
     9 PA          62.7070    13.1550    30.5010 P.3          1 ANP902   0.0000
    10 O1A         63.6650    12.7980    29.4560 O.co2        1 ANP902   0.0000
    11 O2A         62.3060    12.0380    31.3710 O.co2        1 ANP902  -1.0000
    12 O3A         61.3730    13.7340    29.8690 O.3          1 ANP902   0.0000
    13 O5'         63.1270    14.3760    31.4870 O.3          1 ANP902   0.0000
    14 C5'         64.4410    14.6680    31.5450 C.3          1 ANP902   0.0000
    15 C4'         64.8190    16.0680    31.1430 C.3          1 ANP902   0.0000
    16 O4'         66.2040    16.0060    31.1250 O.3          1 ANP902   0.0000
    17 C3'         64.4310    16.6610    29.7990 C.3          1 ANP902   0.0000
    18 O3'         63.1280    17.2700    29.8770 O.3          1 ANP902   0.0000
    19 C2'         65.5760    17.6690    29.6050 C.3          1 ANP902   0.0000
    20 O2'         65.2140    19.0100    30.0110 O.3          1 ANP902   0.0000
    21 C1'         66.7420    17.1500    30.4720 C.3          1 ANP902   0.0000
    22 N9          67.8220    16.4390    29.6790 N.pl3        1 ANP902   0.0000
    23 C8          67.7730    15.0850    29.4730 C.2          1 ANP902   0.0000
    24 N7          68.7850    14.6440    28.7710 N.2          1 ANP902   0.0000
    25 C5          69.5170    15.6890    28.4950 C.ar         1 ANP902   0.0000
    26 C6          70.6980    15.8320    27.7890 C.ar         1 ANP902   0.0000
    27 N6          71.2750    14.7550    27.2490 N.pl3        1 ANP902   0.0000
    28 N1          71.2730    17.1170    27.6480 N.ar         1 ANP902   0.0000
    29 C2          70.6430    18.2590    28.2330 C.ar         1 ANP902   0.0000
    30 N3          69.5090    18.0700    28.9060 N.ar         1 ANP902   0.0000
    31 C4          68.9220    16.8560    29.0610 C.ar         1 ANP902   0.0000
    32 H3B         59.6142    14.5948    27.1171 H            1 ANP902   0.0000
    33 H5'1        64.9231    14.0343    30.9400 H            1 ANP902   0.0000
    34 H5'2        64.7455    14.5265    32.4869 H            1 ANP902   0.0000
    35 H4'         64.5349    16.6977    31.8661 H            1 ANP902   0.0000
    36 H3'         64.4517    15.9612    29.0849 H            1 ANP902   0.0000
    37 H6          62.5123    16.8242    29.2273 H            1 ANP902   0.0000
    38 H2'         65.8535    17.6760    28.6443 H            1 ANP902   0.0000
    39 H8          64.9671    19.0097    30.9800 H            1 ANP902   0.0000
    40 H1'         67.1013    17.8357    31.1051 H            1 ANP902   0.0000
    41 H10         67.0426    14.4976    29.8216 H            1 ANP902   0.0000
    42 H11         72.1288    14.8490    26.7370 H            1 ANP902   0.0000
    43 H12         70.8531    13.8548    27.3568 H            1 ANP902   0.0000
    44 H13         71.0412    19.1716    28.1399 H            1 ANP902   0.0000
@<TRIPOS>BOND
     1    1    2      ar
     2    1    3      ar
     3    1    4      ar
     4    1    8       1
     5    5    6      ar
     6    5    7      ar
     7    5    8       1
     8    5   12       1
     9    9   10      ar
    10    9   11      ar
    11    9   12       1
    12    9   13       1
    13   13   14       1
    14   14   15       1
    15   15   16       1
    16   15   17       1
    17   16   21       1
    18   17   18       1
    19   17   19       1
    20   19   20       1
    21   19   21       1
    22   21   22       1
    23   22   23       1
    24   22   31       1
    25   23   24       2
    26   24   25       1
    27   25   26      ar
    28   25   31      ar
    29   26   27       1
    30   26   28      ar
    31   28   29      ar
    32   29   30      ar
    33   30   31      ar
    34   29   44       1
    35   27   43       1
    36   27   42       1
    37    8   32       1
    38   23   41       1
    39   14   33       1
    40   14   34       1
    41   15   35       1
    42   17   36       1
    43   18   37       1
    44   19   38       1
    45   20   39       1
    46   21   40       1
@<TRIPOS>SUBSTRUCTURE
     1 ANP902      1 GROUP             4 B     ANP     0 **** ANP B 902
