@<TRIPOS>MOLECULE
3dmj_GWE_1_ligand
   53    55     1     0     0
SMALL
NO_CHARGES


@<TRIPOS>ATOM
     1 C1          -2.2430   -34.6580    22.5180 C.ar         1 GWE999   0.0000
     2 C2          -2.0950   -34.8120    24.0160 C.ar         1 GWE999   0.0000
     3 C3          -1.4290   -35.9030    24.4970 C.ar         1 GWE999   0.0000
     4 C4          -0.8480   -36.9180    23.5900 C.ar         1 GWE999   0.0000
     5 C5          -0.9730   -36.7900    22.2490 C.ar         1 GWE999   0.0000
     6 C6          -1.6970   -35.6190    21.6840 C.ar         1 GWE999   0.0000
     7 CL1          0.0140   -38.2490    24.2740 Cl           1 GWE999   0.0000
     8 C7          -2.6360   -33.7300    24.9170 C.2          1 GWE999   0.0000
     9 O1          -3.7110   -33.2180    24.6420 O.2          1 GWE999   0.0000
    10 C8          -1.9200   -33.1810    26.1430 C.ar         1 GWE999   0.0000
    11 C9          -2.6730   -32.6400    27.2270 C.ar         1 GWE999   0.0000
    12 C10         -2.0010   -32.0600    28.3400 C.ar         1 GWE999   0.0000
    13 C11         -0.5950   -32.0280    28.3800 C.ar         1 GWE999   0.0000
    14 C12          0.1490   -32.5750    27.3090 C.ar         1 GWE999   0.0000
    15 C13         -0.5140   -33.1380    26.2100 C.ar         1 GWE999   0.0000
    16 C14          1.6580   -32.6040    27.3110 C.3          1 GWE999   0.0000
    17 F1           2.1620   -32.4460    28.5500 F            1 GWE999   0.0000
    18 F2           2.1060   -31.6040    26.5060 F            1 GWE999   0.0000
    19 F3           2.0820   -33.8130    26.8320 F            1 GWE999   0.0000
    20 F4          -2.6910   -31.5280    29.3360 F            1 GWE999   0.0000
    21 O2          -2.9190   -33.5550    22.0690 O.3          1 GWE999   0.0000
    22 C15         -3.3500   -33.4180    20.6910 C.3          1 GWE999   0.0000
    23 C16         -4.7660   -33.9220    20.7040 C.2          1 GWE999   0.0000
    24 O3          -5.2170   -34.3220    19.6450 O.2          1 GWE999   0.0000
    25 N1          -5.4730   -33.9050    21.9120 N.am         1 GWE999   0.0000
    26 C17         -6.5850   -34.6490    22.2850 C.ar         1 GWE999   0.0000
    27 C18         -7.3530   -34.2050    23.5120 C.ar         1 GWE999   0.0000
    28 C19         -8.4360   -34.8990    23.8920 C.ar         1 GWE999   0.0000
    29 C20         -8.8910   -36.1020    23.1370 C.ar         1 GWE999   0.0000
    30 C21         -8.2230   -36.5060    22.0530 C.ar         1 GWE999   0.0000
    31 C22         -7.0300   -35.7580    21.6130 C.ar         1 GWE999   0.0000
    32 C23         -6.9440   -33.0170    24.3370 C.3          1 GWE999   0.0000
    33 S1         -10.3030   -36.9900    23.6870 S.o2         1 GWE999   0.0000
    34 N2         -11.2960   -37.2480    22.4210 N.3          1 GWE999   0.0000
    35 O4          -9.8820   -38.2690    24.2420 O.2          1 GWE999   0.0000
    36 O5         -10.9880   -36.1900    24.6910 O.2          1 GWE999   0.0000
    37 H1          -1.3316   -36.0188    25.4855 H            1 GWE999   0.0000
    38 H2          -0.5806   -37.4793    21.6400 H            1 GWE999   0.0000
    39 H3          -1.7900   -35.5253    20.6928 H            1 GWE999   0.0000
    40 H4          -3.6724   -32.6681    27.2051 H            1 GWE999   0.0000
    41 H5          -0.1239   -31.6203    29.1622 H            1 GWE999   0.0000
    42 H6           0.0232   -33.5176    25.4568 H            1 GWE999   0.0000
    43 H7          -2.7807   -33.9718    20.0833 H            1 GWE999   0.0000
    44 H8          -3.3153   -32.4617    20.4006 H            1 GWE999   0.0000
    45 H9          -5.1296   -33.2685    22.6027 H            1 GWE999   0.0000
    46 H10         -8.9489   -34.6038    24.6981 H            1 GWE999   0.0000
    47 H11         -8.5295   -37.3099    21.5433 H            1 GWE999   0.0000
    48 H12         -6.5326   -36.0682    20.8029 H            1 GWE999   0.0000
    49 H13         -7.5848   -32.9017    25.0960 H            1 GWE999   0.0000
    50 H14         -6.0228   -33.1629    24.6978 H            1 GWE999   0.0000
    51 H15         -6.9522   -32.1960    23.7661 H            1 GWE999   0.0000
    52 H16        -11.5796   -36.3700    22.0355 H            1 GWE999   0.0000
    53 H17        -10.8153   -37.7788    21.7231 H            1 GWE999   0.0000
@<TRIPOS>BOND
     1    1    2      ar
     2    1    6      ar
     3    1   21       1
     4    2    3      ar
     5    2    8       1
     6    3    4      ar
     7    4    5      ar
     8    4    7       1
     9    5    6      ar
    10    8    9       2
    11    8   10       1
    12   10   11      ar
    13   10   15      ar
    14   11   12      ar
    15   12   13      ar
    16   12   20       1
    17   13   14      ar
    18   14   15      ar
    19   14   16       1
    20   16   17       1
    21   16   18       1
    22   16   19       1
    23   21   22       1
    24   22   23       1
    25   23   24       2
    26   23   25      am
    27   25   26       1
    28   26   27      ar
    29   26   31      ar
    30   27   28      ar
    31   27   32       1
    32   28   29      ar
    33   29   30      ar
    34   29   33       1
    35   30   31      ar
    36   33   34       1
    37   33   35       2
    38   33   36       2
    39    3   37       1
    40    5   38       1
    41    6   39       1
    42   11   40       1
    43   13   41       1
    44   15   42       1
    45   22   43       1
    46   22   44       1
    47   25   45       1
    48   28   46       1
    49   30   47       1
    50   31   48       1
    51   32   49       1
    52   32   50       1
    53   32   51       1
    54   34   52       1
    55   34   53       1
@<TRIPOS>SUBSTRUCTURE
     1 GWE999      1 GROUP             4 A     GWE     0 **** GWE A 999
