@<TRIPOS>MOLECULE
2r26_CMC_2_ligand
   85    87     1     0     0
SMALL
NO_CHARGES


@<TRIPOS>ATOM
     1 N1A         31.9170    64.5060    37.4730 N.ar         1 CMC700   0.0000
     2 C2A         30.8220    64.8170    38.1950 C.ar         1 CMC700   0.0000
     3 N3A         30.5810    64.3220    39.4210 N.ar         1 CMC700   0.0000
     4 C4A         31.4490    63.4580    40.0080 C.ar         1 CMC700   0.0000
     5 C5A         32.6680    63.0680    39.2800 C.ar         1 CMC700   0.0000
     6 C6A         32.8660    63.6570    37.9350 C.ar         1 CMC700   0.0000
     7 N6A         33.9580    63.3540    37.1930 N.pl3        1 CMC700   0.0000
     8 N7A         33.3420    62.2200    40.0780 N.2          1 CMC700   0.0000
     9 C8A         32.6170    62.0760    41.2170 C.2          1 CMC700   0.0000
    10 N9A         31.4900    62.8110    41.1750 N.pl3        1 CMC700   0.0000
    11 C1B         30.4630    62.9060    42.2410 C.3          1 CMC700   0.0000
    12 C2B         29.3420    61.8970    42.0430 C.3          1 CMC700   0.0000
    13 O2B         28.2750    62.4290    41.2510 O.3          1 CMC700   0.0000
    14 C3B         28.9000    61.6120    43.4630 C.3          1 CMC700   0.0000
    15 O3B         27.9730    62.6190    43.8480 O.3          1 CMC700   0.0000
    16 P3B         26.4480    62.2940    44.2320 P.3          1 CMC700   0.0000
    17 O7A         25.9400    61.4520    43.0790 O.co2        1 CMC700   0.0000
    18 O8A         25.8260    63.6720    44.3240 O.co2        1 CMC700  -1.0000
    19 O9A         26.5640    61.5650    45.5520 O.co2        1 CMC700  -1.0000
    20 C4B         30.1410    61.8340    44.3140 C.3          1 CMC700   0.0000
    21 O4B         31.0350    62.6230    43.5240 O.3          1 CMC700   0.0000
    22 C5B         30.7960    60.5150    44.7410 C.3          1 CMC700   0.0000
    23 O5B         30.8080    59.5970    43.6400 O.3          1 CMC700   0.0000
    24 P1A         31.3340    58.0770    43.7450 P.3          1 CMC700   0.0000
    25 O1A         31.3260    57.5070    42.3470 O.co2        1 CMC700   0.0000
    26 O2A         30.5640    57.3850    44.8430 O.co2        1 CMC700  -1.0000
    27 O3A         32.8510    58.2700    44.2450 O.3          1 CMC700   0.0000
    28 P2A         34.0800    57.4360    43.6270 P.3          1 CMC700   0.0000
    29 O4A         33.5860    56.0720    43.2030 O.co2        1 CMC700   0.0000
    30 O5A         35.2310    57.5380    44.5980 O.co2        1 CMC700  -1.0000
    31 O6A         34.4650    58.2750    42.3100 O.3          1 CMC700   0.0000
    32 CBP         35.4170    57.9790    40.0910 C.3          1 CMC700   0.0000
    33 CCP         35.6660    57.9950    41.5970 C.3          1 CMC700   0.0000
    34 CDP         36.6890    57.8990    39.4450 C.3          1 CMC700   0.0000
    35 CEP         34.6430    56.8140    39.7690 C.3          1 CMC700   0.0000
    36 CAP         34.6840    59.2500    39.6290 C.3          1 CMC700   0.0000
    37 OAP         35.4930    60.4080    39.8870 O.3          1 CMC700   0.0000
    38 C9P         34.3150    59.2200    38.1680 C.2          1 CMC700   0.0000
    39 O9P         33.2770    58.6900    37.8120 O.2          1 CMC700   0.0000
    40 N8P         35.1630    59.8060    37.3200 N.am         1 CMC700   0.0000
    41 C7P         34.8380    60.1110    35.9380 C.3          1 CMC700   0.0000
    42 C6P         35.4940    59.1460    34.9520 C.3          1 CMC700   0.0000
    43 C5P         36.9980    59.1410    35.1100 C.2          1 CMC700   0.0000
    44 O5P         37.6480    60.1430    34.8430 O.2          1 CMC700   0.0000
    45 N4P         37.5370    57.9960    35.5430 N.am         1 CMC700   0.0000
    46 C3P         38.9700    57.7600    35.6090 C.3          1 CMC700   0.0000
    47 C2P         39.5080    57.8050    37.0350 C.3          1 CMC700   0.0000
    48 S1P         41.2690    57.6590    37.0250 S.3          1 CMC700   0.0000
    49 C1          41.9620    56.6540    36.0630 C.3          1 CMC700   0.0000
    50 C2          41.5170    55.7120    35.7140 C.2          1 CMC700   0.0000
    51 O21         41.9070    55.2530    34.8130 O.co2        1 CMC700   0.0000
    52 O22         40.8510    54.9680    36.5110 O.co2        1 CMC700  -1.0000
    53 H2A         30.1553    65.4480    37.7983 H            1 CMC700   0.0000
    54 H6A1        34.6475    62.7249    37.5519 H            1 CMC700   0.0000
    55 H6A2        34.0747    63.7594    36.2864 H            1 CMC700   0.0000
    56 H8A         32.8857    61.4983    41.9878 H            1 CMC700   0.0000
    57 H1B         30.0786    63.8292    42.2475 H            1 CMC700   0.0000
    58 H2B         29.7003    61.0641    41.6213 H            1 CMC700   0.0000
    59 H7          27.4124    62.0040    41.5253 H            1 CMC700   0.0000
    60 H3B         28.5263    60.6904    43.5678 H            1 CMC700   0.0000
    61 H4B         29.8868    62.3507    45.1315 H            1 CMC700   0.0000
    62 H5B1        30.2780    60.1175    45.4984 H            1 CMC700   0.0000
    63 H5B2        31.7351    60.6914    45.0358 H            1 CMC700   0.0000
    64 HCP1        36.0138    57.1013    41.8805 H            1 CMC700   0.0000
    65 HCP2        36.3438    58.6990    41.8089 H            1 CMC700   0.0000
    66 HDP1        36.5591    57.8867    38.4535 H            1 CMC700   0.0000
    67 HDP2        37.2423    58.6924    39.6989 H            1 CMC700   0.0000
    68 HDP3        37.1558    57.0620    39.7305 H            1 CMC700   0.0000
    69 HEP1        34.4715    56.7895    38.7841 H            1 CMC700   0.0000
    70 HEP2        35.1467    55.9938    40.0401 H            1 CMC700   0.0000
    71 HEP3        33.7716    56.8470    40.2584 H            1 CMC700   0.0000
    72 HAP         33.8415    59.3341    40.1611 H            1 CMC700   0.0000
    73 H21         34.9019    61.1961    40.0586 H            1 CMC700   0.0000
    74 H8P         36.0733    60.0486    37.6553 H            1 CMC700   0.0000
    75 H7P1        35.1498    61.0388    35.7332 H            1 CMC700   0.0000
    76 H7P2        33.8459    60.0599    35.8238 H            1 CMC700   0.0000
    77 H6P1        35.2649    59.4264    34.0198 H            1 CMC700   0.0000
    78 H6P2        35.1456    58.2234    35.1178 H            1 CMC700   0.0000
    79 H4P         36.9222    57.2641    35.8367 H            1 CMC700   0.0000
    80 H3P1        39.4351    58.4616    35.0692 H            1 CMC700   0.0000
    81 H3P2        39.1640    56.8586    35.2220 H            1 CMC700   0.0000
    82 H2P1        39.1165    57.0494    37.5601 H            1 CMC700   0.0000
    83 H2P2        39.2506    58.6737    37.4583 H            1 CMC700   0.0000
    84 H32         42.8153    56.3953    36.5157 H            1 CMC700   0.0000
    85 H33         42.1686    57.1752    35.2350 H            1 CMC700   0.0000
@<TRIPOS>BOND
     1    1    2      ar
     2    1    6      ar
     3    2    3      ar
     4    3    4      ar
     5    4    5      ar
     6    4   10       1
     7    5    6      ar
     8    5    8       1
     9    6    7       1
    10    8    9       2
    11    9   10       1
    12   10   11       1
    13   11   12       1
    14   11   21       1
    15   12   13       1
    16   12   14       1
    17   14   15       1
    18   14   20       1
    19   15   16       1
    20   16   17      ar
    21   16   18      ar
    22   16   19      ar
    23   20   21       1
    24   20   22       1
    25   22   23       1
    26   23   24       1
    27   24   25      ar
    28   24   26      ar
    29   24   27       1
    30   27   28       1
    31   28   29      ar
    32   28   30      ar
    33   28   31       1
    34   31   33       1
    35   32   33       1
    36   32   34       1
    37   32   35       1
    38   32   36       1
    39   36   37       1
    40   36   38       1
    41   38   39       2
    42   38   40      am
    43   40   41       1
    44   41   42       1
    45   42   43       1
    46   43   44       2
    47   43   45      am
    48   45   46       1
    49   46   47       1
    50   47   48       1
    51   48   49       1
    52   49   50       1
    53   50   51      ar
    54   50   52      ar
    55    2   53       1
    56    7   54       1
    57    7   55       1
    58    9   56       1
    59   11   57       1
    60   12   58       1
    61   13   59       1
    62   14   60       1
    63   47   82       1
    64   49   85       1
    65   20   61       1
    66   22   62       1
    67   22   63       1
    68   49   84       1
    69   47   83       1
    70   33   64       1
    71   33   65       1
    72   34   66       1
    73   34   67       1
    74   34   68       1
    75   35   69       1
    76   35   70       1
    77   35   71       1
    78   36   72       1
    79   37   73       1
    80   40   74       1
    81   41   75       1
    82   41   76       1
    83   42   77       1
    84   42   78       1
    85   45   79       1
    86   46   80       1
    87   46   81       1
@<TRIPOS>SUBSTRUCTURE
     1 CMC700      1 GROUP             4 B     CMC     0 **** CMC B 700
