@<TRIPOS>MOLECULE
2lf1_NDP_1_ligand
   73    77     1     0     0
SMALL
NO_CHARGES


@<TRIPOS>ATOM
     1 PA          -5.0490    -3.4780    -8.9040 P.3          1 NDP170   0.0000
     2 O1A         -5.6320    -4.0350    -7.6720 O.co2        1 NDP170   0.0000
     3 O2A         -5.6950    -3.8270   -10.1840 O.co2        1 NDP170  -1.0000
     4 O5B         -4.8220    -1.9070    -8.7810 O.3          1 NDP170   0.0000
     5 C5B         -4.8510    -1.0670    -9.9480 C.3          1 NDP170   0.0000
     6 C4B         -6.1670    -1.2240   -10.6720 C.3          1 NDP170   0.0000
     7 O4B         -7.2560    -0.9130    -9.7620 O.3          1 NDP170   0.0000
     8 C3B         -6.3800    -0.2920   -11.8540 C.3          1 NDP170   0.0000
     9 O3B         -5.8020    -0.8360   -13.0450 O.3          1 NDP170   0.0000
    10 C2B         -7.8990    -0.2320   -11.9430 C.3          1 NDP170   0.0000
    11 O2B         -8.4670    -1.3410   -12.6080 O.3          1 NDP170   0.0000
    12 C1B         -8.2870    -0.2370   -10.4620 C.3          1 NDP170   0.0000
    13 N9A         -8.4080     1.1070    -9.9000 N.pl3        1 NDP170   0.0000
    14 C8A         -7.4040     1.8970    -9.3960 C.2          1 NDP170   0.0000
    15 N7A         -7.8160     3.0620    -8.9600 N.2          1 NDP170   0.0000
    16 C5A         -9.1830     3.0400    -9.1930 C.ar         1 NDP170   0.0000
    17 C6A        -10.2020     3.9820    -8.9530 C.ar         1 NDP170   0.0000
    18 N6A         -9.9890     5.1790    -8.4030 N.pl3        1 NDP170   0.0000
    19 N1A        -11.4650     3.6460    -9.3040 N.ar         1 NDP170   0.0000
    20 C2A        -11.6800     2.4430    -9.8560 C.ar         1 NDP170   0.0000
    21 N3A        -10.8060     1.4750   -10.1320 N.ar         1 NDP170   0.0000
    22 C4A         -9.5620     1.8400    -9.7720 C.ar         1 NDP170   0.0000
    23 O3          -3.4660    -3.9320    -8.9790 O.3          1 NDP170   0.0000
    24 PN          -2.5100    -4.9890    -8.1500 P.3          1 NDP170   0.0000
    25 O1N         -3.0510    -5.1350    -6.7850 O.co2        1 NDP170   0.0000
    26 O2N         -2.3620    -6.2140    -8.9600 O.co2        1 NDP170  -1.0000
    27 O5D         -1.1740    -4.1220    -8.1560 O.3          1 NDP170   0.0000
    28 C5D         -0.3080    -4.1130    -9.3040 C.3          1 NDP170   0.0000
    29 C4D          0.8940    -4.9910    -9.0560 C.3          1 NDP170   0.0000
    30 O4D          1.7160    -4.4100    -8.0110 O.3          1 NDP170   0.0000
    31 C3D          0.5920    -6.3950    -8.5580 C.3          1 NDP170   0.0000
    32 O3D          0.3020    -7.2740    -9.6500 O.3          1 NDP170   0.0000
    33 C2D          1.8970    -6.7780    -7.8710 C.3          1 NDP170   0.0000
    34 O2D          2.8950    -7.2450    -8.7790 O.3          1 NDP170   0.0000
    35 C1D          2.3230    -5.4430    -7.2530 C.3          1 NDP170   0.0000
    36 N1N          1.9280    -5.2800    -5.8540 N.ar         1 NDP170   1.0000
    37 C2N          2.6730    -5.0510    -4.7770 C.ar         1 NDP170   0.0000
    38 C3N          2.2570    -4.8810    -3.5610 C.ar         1 NDP170   0.0000
    39 C7N          3.3750    -4.6690    -2.6810 C.2          1 NDP170   0.0000
    40 O7N          2.8240    -4.3920    -1.5200 O.2          1 NDP170   0.0000
    41 N7N          4.7090    -4.6720    -2.9230 N.am         1 NDP170   0.0000
    42 C4N          0.7740    -4.9500    -3.3160 C.ar         1 NDP170   0.0000
    43 C5N         -0.0930    -5.1980    -4.4400 C.ar         1 NDP170   0.0000
    44 C6N          0.3930    -5.3720    -5.7280 C.ar         1 NDP170   0.0000
    45 P2B         -8.2500    -1.8080   -14.1970 P.3          1 NDP170   0.0000
    46 O1X         -9.7520    -1.6660   -14.6630 O.co2        1 NDP170   0.0000
    47 O2X         -7.4410    -0.6230   -14.7230 O.co2        1 NDP170  -1.0000
    48 O3X         -7.9140    -3.2860   -14.0050 O.co2        1 NDP170  -1.0000
    49 H5B1        -4.1042    -1.3266   -10.5603 H            1 NDP170   0.0000
    50 H5B2        -4.7384    -0.1128    -9.6709 H            1 NDP170   0.0000
    51 H4B         -6.2593    -2.1705   -10.9811 H            1 NDP170   0.0000
    52 H3B         -6.0024     0.6136   -11.6610 H            1 NDP170   0.0000
    53 H5          -6.5153    -0.9611   -13.7346 H            1 NDP170   0.0000
    54 H2B         -8.1895     0.6209   -12.3767 H            1 NDP170   0.0000
    55 H1B         -9.1499    -0.7283   -10.3436 H            1 NDP170   0.0000
    56 H8A         -6.4467     1.6096    -9.3646 H            1 NDP170   0.0000
    57 H6A1       -10.7545     5.8058    -8.2575 H            1 NDP170   0.0000
    58 H6A2        -9.0639     5.4492    -8.1363 H            1 NDP170   0.0000
    59 H2A        -12.6305     2.2438   -10.0944 H            1 NDP170   0.0000
    60 H5D1        -0.0029    -3.1772    -9.4804 H            1 NDP170   0.0000
    61 H5D2        -0.8091    -4.4556   -10.0987 H            1 NDP170   0.0000
    62 H4D          1.4316    -5.0523    -9.8970 H            1 NDP170   0.0000
    63 H3D         -0.1631    -6.3835    -7.9025 H            1 NDP170   0.0000
    64 H16         -0.6799    -7.2587    -9.8385 H            1 NDP170   0.0000
    65 H2D          1.7297    -7.4568    -7.1560 H            1 NDP170   0.0000
    66 H18          2.7695    -6.8042    -9.6678 H            1 NDP170   0.0000
    67 H1D          3.3168    -5.3555    -7.3222 H            1 NDP170   0.0000
    68 H2N          3.6616    -5.0049    -4.9204 H            1 NDP170   0.0000
    69 H7N1         5.3529    -4.5025    -2.1769 H            1 NDP170   0.0000
    70 H7N2         5.0490    -4.8437    -3.8476 H            1 NDP170   0.0000
    71 H4N          0.3997    -4.8269    -2.3969 H            1 NDP170   0.0000
    72 H5N         -1.0799    -5.2464    -4.2863 H            1 NDP170   0.0000
    73 H6N         -0.2039    -5.5433    -6.5118 H            1 NDP170   0.0000
@<TRIPOS>BOND
     1    1    2      ar
     2    1    3      ar
     3    1    4       1
     4    1   23       1
     5    4    5       1
     6    5    6       1
     7    6    7       1
     8    6    8       1
     9    7   12       1
    10    8    9       1
    11    8   10       1
    12   10   11       1
    13   10   12       1
    14   11   45       1
    15   12   13       1
    16   13   14       1
    17   13   22       1
    18   14   15       2
    19   15   16       1
    20   16   17      ar
    21   16   22      ar
    22   17   18       1
    23   17   19      ar
    24   19   20      ar
    25   20   21      ar
    26   21   22      ar
    27   23   24       1
    28   24   25      ar
    29   24   26      ar
    30   24   27       1
    31   27   28       1
    32   28   29       1
    33   29   30       1
    34   29   31       1
    35   30   35       1
    36   31   32       1
    37   31   33       1
    38   33   34       1
    39   33   35       1
    40   35   36       1
    41   36   37      ar
    42   36   44      ar
    43   37   38      ar
    44   38   39       1
    45   38   42      ar
    46   39   40       2
    47   39   41      am
    48   42   43      ar
    49   43   44      ar
    50   45   46      ar
    51   45   47      ar
    52   45   48      ar
    53   43   72       1
    54    5   49       1
    55    5   50       1
    56    6   51       1
    57    8   52       1
    58    9   53       1
    59   10   54       1
    60   12   55       1
    61   14   56       1
    62   18   57       1
    63   18   58       1
    64   20   59       1
    65   44   73       1
    66   28   60       1
    67   28   61       1
    68   29   62       1
    69   31   63       1
    70   32   64       1
    71   33   65       1
    72   34   66       1
    73   35   67       1
    74   37   68       1
    75   41   69       1
    76   41   70       1
    77   42   71       1
@<TRIPOS>SUBSTRUCTURE
     1 NDP170      1 GROUP             4 A     NDP     0 **** NDP A 170
