@<TRIPOS>MOLECULE
3ngl_NAP_1_ligand
   73    77     1     0     0
SMALL
NO_CHARGES


@<TRIPOS>ATOM
     1 PA           2.3890   -11.6440    23.3880 P.3          1 NAP305   0.0000
     2 O1A          3.1780   -12.7670    23.9430 O.co2        1 NAP305   0.0000
     3 O2A          1.4040   -11.0380    24.3000 O.co2        1 NAP305  -1.0000
     4 O5B          1.5850   -12.2800    22.1570 O.3          1 NAP305   0.0000
     5 C5B          1.9650   -13.4360    21.5010 C.3          1 NAP305   0.0000
     6 C4B          0.7620   -13.7210    20.6470 C.3          1 NAP305   0.0000
     7 O4B          1.1530   -14.6980    19.7180 O.3          1 NAP305   0.0000
     8 C3B         -0.4210   -14.2870    21.4460 C.3          1 NAP305   0.0000
     9 O3B         -1.6720   -13.8310    20.9230 O.3          1 NAP305   0.0000
    10 C2B         -0.2860   -15.7780    21.2060 C.3          1 NAP305   0.0000
    11 O2B         -1.5210   -16.4240    21.2790 O.3          1 NAP305   0.0000
    12 C1B          0.2800   -15.8070    19.7980 C.3          1 NAP305   0.0000
    13 N9A          1.0140   -17.0500    19.5790 N.pl3        1 NAP305   0.0000
    14 C8A          2.2140   -17.4320    20.1680 C.2          1 NAP305   0.0000
    15 N7A          2.5280   -18.6650    19.6820 N.2          1 NAP305   0.0000
    16 C5A          1.5640   -19.0560    18.8020 C.ar         1 NAP305   0.0000
    17 C6A          1.3820   -20.2040    18.0360 C.ar         1 NAP305   0.0000
    18 N6A          2.2830   -21.1650    18.0810 N.pl3        1 NAP305   0.0000
    19 N1A          0.2870   -20.3280    17.1990 N.ar         1 NAP305   0.0000
    20 C2A         -0.6220   -19.3040    17.1500 C.ar         1 NAP305   0.0000
    21 N3A         -0.4620   -18.1870    17.9200 N.ar         1 NAP305   0.0000
    22 C4A          0.6090   -18.0530    18.7260 C.ar         1 NAP305   0.0000
    23 O3           3.4090   -10.6000    22.7030 O.3          1 NAP305   0.0000
    24 PN           3.2880    -9.1760    21.9260 P.3          1 NAP305   0.0000
    25 O1N          3.5910    -8.1330    22.9640 O.co2        1 NAP305   0.0000
    26 O2N          2.0160    -9.1430    21.1740 O.co2        1 NAP305  -1.0000
    27 O5D          4.4570    -9.2080    20.8390 O.3          1 NAP305   0.0000
    28 C5D          4.5880   -10.4170    20.0990 C.3          1 NAP305   0.0000
    29 C4D          5.8530   -10.4620    19.2300 C.3          1 NAP305   0.0000
    30 O4D          6.0070    -9.2320    18.5480 O.3          1 NAP305   0.0000
    31 C3D          7.1380   -10.6690    20.0390 C.3          1 NAP305   0.0000
    32 O3D          8.0950   -11.2700    19.1750 O.3          1 NAP305   0.0000
    33 C2D          7.5120    -9.2240    20.3940 C.3          1 NAP305   0.0000
    34 O2D          8.8720    -9.0330    20.7670 O.3          1 NAP305   0.0000
    35 C1D          7.1130    -8.5110    19.0810 C.3          1 NAP305   0.0000
    36 N1N          6.9170    -7.0360    19.1890 N.ar         1 NAP305   1.0000
    37 C2N          7.7460    -6.2560    18.4220 C.ar         1 NAP305   0.0000
    38 C3N          7.6820    -4.8610    18.4470 C.ar         1 NAP305   0.0000
    39 C7N          8.3580    -4.0870    17.3250 C.2          1 NAP305   0.0000
    40 O7N          9.1160    -2.9280    17.6110 O.2          1 NAP305   0.0000
    41 N7N          8.2620    -4.5370    16.0640 N.am         1 NAP305   0.0000
    42 C4N          6.7450    -4.2690    19.3040 C.ar         1 NAP305   0.0000
    43 C5N          5.8950    -5.0630    20.0930 C.ar         1 NAP305   0.0000
    44 C6N          5.9920    -6.4520    20.0360 C.ar         1 NAP305   0.0000
    45 P2B         -2.3460   -16.3910    22.6590 P.3          1 NAP305   0.0000
    46 O1X         -3.0100   -15.0550    22.8010 O.co2        1 NAP305   0.0000
    47 O2X         -3.3910   -17.4840    22.6390 O.co2        1 NAP305  -1.0000
    48 O3X         -1.4740   -16.5610    23.8650 O.co2        1 NAP305  -1.0000
    49 H5B1         2.1368   -14.1802    22.1465 H            1 NAP305   0.0000
    50 H5B2         2.7801   -13.2851    20.9416 H            1 NAP305   0.0000
    51 H4B          0.4812   -12.8896    20.1676 H            1 NAP305   0.0000
    52 H3B         -0.3361   -14.0694    22.4183 H            1 NAP305   0.0000
    53 H5          -2.3428   -13.7773    21.6627 H            1 NAP305   0.0000
    54 H2B          0.3607   -16.1813    21.8534 H            1 NAP305   0.0000
    55 H1B         -0.4561   -15.7170    19.1272 H            1 NAP305   0.0000
    56 H8A          2.7473   -16.9004    20.8260 H            1 NAP305   0.0000
    57 H6A1         2.1591   -21.9926    17.5335 H            1 NAP305   0.0000
    58 H6A2         3.0905   -21.0665    18.6626 H            1 NAP305   0.0000
    59 H2A         -1.4131   -19.3752    16.5425 H            1 NAP305   0.0000
    60 H5D1         3.7902   -10.5130    19.5037 H            1 NAP305   0.0000
    61 H5D2         4.6176   -11.1817    20.7427 H            1 NAP305   0.0000
    62 H4D          5.7647   -11.1994    18.5604 H            1 NAP305   0.0000
    63 H3D          6.9769   -11.2221    20.8564 H            1 NAP305   0.0000
    64 H16          8.7132   -11.8450    19.7109 H            1 NAP305   0.0000
    65 H2D          6.9205    -8.9041    21.1342 H            1 NAP305   0.0000
    66 H18          9.0268    -8.0684    20.9804 H            1 NAP305   0.0000
    67 H1D          7.8718    -8.6483    18.4443 H            1 NAP305   0.0000
    68 H2N          8.4162    -6.7000    17.8272 H            1 NAP305   0.0000
    69 H7N1         8.7026    -4.0357    15.3193 H            1 NAP305   0.0000
    70 H7N2         7.7499    -5.3735    15.8693 H            1 NAP305   0.0000
    71 H4N          6.6804    -3.2724    19.3548 H            1 NAP305   0.0000
    72 H5N          5.2220    -4.6320    20.6941 H            1 NAP305   0.0000
    73 H6N          5.3976    -7.0223    20.6030 H            1 NAP305   0.0000
@<TRIPOS>BOND
     1    1    2      ar
     2    1    3      ar
     3    1    4       1
     4    1   23       1
     5    4    5       1
     6    5    6       1
     7    6    7       1
     8    6    8       1
     9    7   12       1
    10    8    9       1
    11    8   10       1
    12   10   11       1
    13   10   12       1
    14   11   45       1
    15   12   13       1
    16   13   14       1
    17   13   22       1
    18   14   15       2
    19   15   16       1
    20   16   17      ar
    21   16   22      ar
    22   17   18       1
    23   17   19      ar
    24   19   20      ar
    25   20   21      ar
    26   21   22      ar
    27   23   24       1
    28   24   25      ar
    29   24   26      ar
    30   24   27       1
    31   27   28       1
    32   28   29       1
    33   29   30       1
    34   29   31       1
    35   30   35       1
    36   31   32       1
    37   31   33       1
    38   33   34       1
    39   33   35       1
    40   35   36       1
    41   36   37      ar
    42   36   44      ar
    43   37   38      ar
    44   38   39       1
    45   38   42      ar
    46   39   40       2
    47   39   41      am
    48   42   43      ar
    49   43   44      ar
    50   45   46      ar
    51   45   47      ar
    52   45   48      ar
    53   43   72       1
    54    5   49       1
    55    5   50       1
    56    6   51       1
    57    8   52       1
    58    9   53       1
    59   10   54       1
    60   12   55       1
    61   14   56       1
    62   18   57       1
    63   18   58       1
    64   20   59       1
    65   44   73       1
    66   28   60       1
    67   28   61       1
    68   29   62       1
    69   31   63       1
    70   32   64       1
    71   33   65       1
    72   34   66       1
    73   35   67       1
    74   37   68       1
    75   41   69       1
    76   41   70       1
    77   42   71       1
@<TRIPOS>SUBSTRUCTURE
     1 NAP305      1 GROUP             4 A     NAP     0 **** NAP A 305
