@<TRIPOS>MOLECULE
1mqb_ANP_1_ligand
   44    46     1     0     0
SMALL
NO_CHARGES


@<TRIPOS>ATOM
     1 PG          36.0570    33.8650    48.5080 P.3          1 ANP1000   0.0000
     2 O1G         36.0110    32.4560    48.0650 O.co2        1 ANP1000   0.0000
     3 O2G         34.8330    34.6110    47.9200 O.co2        1 ANP1000  -1.0000
     4 O3G         37.3700    34.5590    48.0340 O.co2        1 ANP1000  -1.0000
     5 PB          37.3550    34.0120    51.0510 P.3          1 ANP1000   0.0000
     6 O1B         36.8620    33.9710    52.4570 O.co2        1 ANP1000   0.0000
     7 O2B         38.2990    32.8030    50.7610 O.co2        1 ANP1000  -1.0000
     8 N3B         36.0300    33.9630    50.1230 N.3          1 ANP1000   0.0000
     9 PA          38.3550    36.6720    51.4940 P.3          1 ANP1000   0.0000
    10 O1A         37.6930    36.5100    52.8030 O.co2        1 ANP1000   0.0000
    11 O2A         39.7740    37.1330    51.8730 O.co2        1 ANP1000  -1.0000
    12 O3A         38.2410    35.3340    50.6370 O.3          1 ANP1000   0.0000
    13 O5'         37.5840    37.8140    50.6530 O.3          1 ANP1000   0.0000
    14 C5'         36.4830    37.5890    49.7990 C.3          1 ANP1000   0.0000
    15 C4'         36.7100    38.3810    48.5270 C.3          1 ANP1000   0.0000
    16 O4'         36.8500    39.7530    48.8400 O.3          1 ANP1000   0.0000
    17 C3'         37.9800    37.9740    47.7780 C.3          1 ANP1000   0.0000
    18 O3'         37.7270    37.0540    46.7680 O.3          1 ANP1000   0.0000
    19 C2'         38.4620    39.2570    47.1650 C.3          1 ANP1000   0.0000
    20 O2'         37.8620    39.4620    45.9020 O.3          1 ANP1000   0.0000
    21 C1'         37.9550    40.3070    48.1390 C.3          1 ANP1000   0.0000
    22 N9          39.0230    40.7530    49.0540 N.pl3        1 ANP1000   0.0000
    23 C8          39.3700    40.2780    50.2890 C.2          1 ANP1000   0.0000
    24 N7          40.4040    41.0300    50.7510 N.2          1 ANP1000   0.0000
    25 C5          40.7000    41.9950    49.8500 C.ar         1 ANP1000   0.0000
    26 C6          41.6440    43.0220    49.7900 C.ar         1 ANP1000   0.0000
    27 N6          42.5480    43.2570    50.7420 N.pl3        1 ANP1000   0.0000
    28 N1          41.6620    43.8230    48.6940 N.ar         1 ANP1000   0.0000
    29 C2          40.8080    43.6340    47.6330 C.ar         1 ANP1000   0.0000
    30 N3          39.9030    42.6120    47.6930 N.ar         1 ANP1000   0.0000
    31 C4          39.8370    41.8180    48.7780 C.ar         1 ANP1000   0.0000
    32 H3B         35.5200    34.7966    50.3351 H            1 ANP1000   0.0000
    33 H5'1        35.6406    37.8940    50.2433 H            1 ANP1000   0.0000
    34 H5'2        36.4129    36.6148    49.5846 H            1 ANP1000   0.0000
    35 H4'         35.9220    38.2623    47.9229 H            1 ANP1000   0.0000
    36 H3'         38.6612    37.6141    48.4155 H            1 ANP1000   0.0000
    37 H6          37.7997    36.1269    47.1357 H            1 ANP1000   0.0000
    38 H2'         39.4597    39.2750    47.0995 H            1 ANP1000   0.0000
    39 H8          37.7763    40.4432    45.7290 H            1 ANP1000   0.0000
    40 H1'         37.6351    41.0969    47.6158 H            1 ANP1000   0.0000
    41 H10         38.9392    39.5128    50.7674 H            1 ANP1000   0.0000
    42 H11         43.1981    44.0098    50.6393 H            1 ANP1000   0.0000
    43 H12         42.5757    42.6804    51.5585 H            1 ANP1000   0.0000
    44 H13         40.8485    44.2328    46.8331 H            1 ANP1000   0.0000
@<TRIPOS>BOND
     1    1    2      ar
     2    1    3      ar
     3    1    4      ar
     4    1    8       1
     5    5    6      ar
     6    5    7      ar
     7    5    8       1
     8    5   12       1
     9    9   10      ar
    10    9   11      ar
    11    9   12       1
    12    9   13       1
    13   13   14       1
    14   14   15       1
    15   15   16       1
    16   15   17       1
    17   16   21       1
    18   17   18       1
    19   17   19       1
    20   19   20       1
    21   19   21       1
    22   21   22       1
    23   22   23       1
    24   22   31       1
    25   23   24       2
    26   24   25       1
    27   25   26      ar
    28   25   31      ar
    29   26   27       1
    30   26   28      ar
    31   28   29      ar
    32   29   30      ar
    33   30   31      ar
    34   29   44       1
    35   27   43       1
    36   27   42       1
    37    8   32       1
    38   23   41       1
    39   14   33       1
    40   14   34       1
    41   15   35       1
    42   17   36       1
    43   18   37       1
    44   19   38       1
    45   20   39       1
    46   21   40       1
@<TRIPOS>SUBSTRUCTURE
     1 ANP1000     1 GROUP             4 A     ANP     0 **** ANP A1000
