@<TRIPOS>MOLECULE
4bva_T3_2_ligand
   35    36     1     0     0
SMALL
NO_CHARGES


@<TRIPOS>ATOM
     1 C1          21.3760    -6.7830    10.7110 C.ar         1 T31314   0.0000
     2 C2          26.0270    -7.2160    12.5680 C.ar         1 T31314   0.0000
     3 C3          22.2110    -7.8000    10.2610 C.ar         1 T31314   0.0000
     4 C4          26.1660    -6.0930    11.7700 C.ar         1 T31314   0.0000
     5 C5          23.3660    -8.1130    10.9650 C.ar         1 T31314   0.0000
     6 C6          27.4290    -5.5700    11.5480 C.ar         1 T31314   0.0000
     7 C7          23.6730    -7.4170    12.1300 C.ar         1 T31314   0.0000
     8 C8          28.5550    -6.1500    12.1110 C.ar         1 T31314   0.0000
     9 C9          22.8450    -6.3910    12.6060 C.ar         1 T31314   0.0000
    10 C10         28.4160    -7.2780    12.9090 C.ar         1 T31314   0.0000
    11 C11         21.6840    -6.0870    11.8860 C.ar         1 T31314   0.0000
    12 C12         27.1510    -7.8030    13.1380 C.ar         1 T31314   0.0000
    13 C13         20.1210    -6.4830     9.9200 C.3          1 T31314   0.0000
    14 C15         20.3010    -5.4010     8.8530 C.3          1 T31314   0.0000
    15 C17         20.2220    -4.0440     9.4880 C.2          1 T31314   0.0000
    16 I1          24.5950    -9.6470    10.2280 I            1 T31314   0.0000
    17 I2          27.5460    -3.8850    10.3430 I            1 T31314   0.0000
    18 I3          23.3000    -5.3390    14.3840 I            1 T31314   0.0000
    19 N1          21.5460    -5.5550     8.1200 N.4          1 T31314   1.0000
    20 O1          29.7860    -5.6280    11.9000 O.3          1 T31314   0.0000
    21 O2          24.8000    -7.7540    12.8170 O.3          1 T31314   0.0000
    22 O3          19.2610    -3.8090    10.2570 O.co2        1 T31314   0.0000
    23 O4          21.1090    -3.2070     9.2160 O.co2        1 T31314  -1.0000
    24 H1          21.9795    -8.3060     9.4301 H            1 T31314   0.0000
    25 H2          25.3622    -5.6638    11.3580 H            1 T31314   0.0000
    26 H3          29.2213    -7.7092    13.3159 H            1 T31314   0.0000
    27 H4          21.0706    -5.3681    12.2129 H            1 T31314   0.0000
    28 H5          27.0475    -8.6108    13.7183 H            1 T31314   0.0000
    29 H6          19.4122    -6.1810    10.5575 H            1 T31314   0.0000
    30 H7          19.8258    -7.3246     9.4677 H            1 T31314   0.0000
    31 H8          19.5469    -5.4814     8.2012 H            1 T31314   0.0000
    32 H9          21.6219    -4.8296     7.4358 H            1 T31314   0.0000
    33 H10         22.3162    -5.4962     8.7551 H            1 T31314   0.0000
    34 H11         30.5889    -6.0578    12.3131 H            1 T31314   0.0000
    35 H12         21.5568    -6.4452     7.6646 H            1 T31314   0.0000
@<TRIPOS>BOND
     1    1    3      ar
     2    1   11      ar
     3    1   13       1
     4    2    4      ar
     5    2   12      ar
     6    2   21       1
     7    3    5      ar
     8    4    6      ar
     9    5    7      ar
    10    5   16       1
    11    6    8      ar
    12    6   17       1
    13    7    9      ar
    14    7   21       1
    15    8   10      ar
    16    8   20       1
    17    9   11      ar
    18    9   18       1
    19   10   12      ar
    20   13   14       1
    21   14   15       1
    22   14   19       1
    23   15   22      ar
    24   15   23      ar
    25    3   24       1
    26    4   25       1
    27   10   26       1
    28   11   27       1
    29   12   28       1
    30   13   29       1
    31   13   30       1
    32   14   31       1
    33   19   32       1
    34   19   33       1
    35   20   34       1
    36   19   35       1
@<TRIPOS>SUBSTRUCTURE
     1 T31314      1 GROUP             4 B      T3     0 ****  T3 B1314
