@<TRIPOS>MOLECULE
3bbt_FMM_2_ligand
   45    48     1     0     0
SMALL
NO_CHARGES


@<TRIPOS>ATOM
     1 C12        -31.6880    59.6250   -13.3790 C.3          1 FMM91    0.0000
     2 C14        -32.4410    59.1530   -12.1700 C.ar         1 FMM91    0.0000
     3 C15        -32.0490    59.5810   -10.9040 C.ar         1 FMM91    0.0000
     4 C16        -32.7390    59.1500    -9.7710 C.ar         1 FMM91    0.0000
     5 C17        -33.8240    58.2880    -9.9040 C.ar         1 FMM91    0.0000
     6 N18        -34.4960    57.8690    -8.8050 N.ar         1 FMM91    0.0000
     7 C19        -35.5440    57.0410    -8.9240 C.ar         1 FMM91    0.0000
     8 N20        -35.9500    56.6110   -10.1280 N.ar         1 FMM91    0.0000
     9 C21        -35.3180    56.9970   -11.2680 C.ar         1 FMM91    0.0000
    10 N22        -35.7420    56.5540   -12.4870 N.pl3        1 FMM91    0.0000
    11 C23        -36.8400    55.6880   -12.6290 C.ar         1 FMM91    0.0000
    12 C24        -36.6350    54.3900   -13.0910 C.ar         1 FMM91    0.0000
    13 C25        -37.7200    53.5270   -13.2340 C.ar         1 FMM91    0.0000
    14 C26        -39.0100    53.9580   -12.9220 C.ar         1 FMM91    0.0000
    15 O27        -40.0900    53.1250   -13.0510 O.3          1 FMM91    0.0000
    16 C28        -40.2520    52.2700   -14.1800 C.3          1 FMM91    0.0000
    17 C29        -40.2560    50.8300   -13.7270 C.ar         1 FMM91    0.0000
    18 C30        -40.6050    50.4900   -12.4200 C.ar         1 FMM91    0.0000
    19 C31        -40.6030    49.1560   -12.0180 C.ar         1 FMM91    0.0000
    20 C32        -40.2510    48.1640   -12.9300 C.ar         1 FMM91    0.0000
    21 C33        -39.9010    48.5010   -14.2360 C.ar         1 FMM91    0.0000
    22 F34        -39.5600    47.5440   -15.1180 F            1 FMM91    0.0000
    23 C35        -39.9060    49.8340   -14.6310 C.ar         1 FMM91    0.0000
    24 C36        -39.2160    55.2480   -12.4620 C.ar         1 FMM91    0.0000
    25 CL3        -40.8850    55.7760   -12.0620 Cl           1 FMM91    0.0000
    26 C38        -38.1350    56.1180   -12.3180 C.ar         1 FMM91    0.0000
    27 C39        -34.2230    57.8590   -11.1720 C.ar         1 FMM91    0.0000
    28 C40        -33.5300    58.2910   -12.3070 C.ar         1 FMM91    0.0000
    29 H1         -32.0952    59.2278   -14.2014 H            1 FMM91    0.0000
    30 H2         -31.7347    60.6225   -13.4324 H            1 FMM91    0.0000
    31 H3         -30.7322    59.3393   -13.3090 H            1 FMM91    0.0000
    32 H4         -31.2696    60.1999   -10.8068 H            1 FMM91    0.0000
    33 H5         -32.4545    59.4600    -8.8638 H            1 FMM91    0.0000
    34 H6         -36.0298    56.7398    -8.1035 H            1 FMM91    0.0000
    35 H7         -35.2552    56.8556   -13.3068 H            1 FMM91    0.0000
    36 H8         -35.7126    54.0785   -13.3193 H            1 FMM91    0.0000
    37 H9         -37.5732    52.5938   -13.5620 H            1 FMM91    0.0000
    38 H10        -39.4969    52.4159   -14.8192 H            1 FMM91    0.0000
    39 H11        -41.1182    52.4786   -14.6341 H            1 FMM91    0.0000
    40 H12        -40.8575    51.2061   -11.7693 H            1 FMM91    0.0000
    41 H13        -40.8527    48.9124   -11.0808 H            1 FMM91    0.0000
    42 H14        -40.2494    47.2051   -12.6462 H            1 FMM91    0.0000
    43 H15        -39.6570    50.0769   -15.5685 H            1 FMM91    0.0000
    44 H16        -38.2858    57.0512   -11.9918 H            1 FMM91    0.0000
    45 H17        -33.8141    57.9830   -13.2150 H            1 FMM91    0.0000
@<TRIPOS>BOND
     1    1    2       1
     2    2    3      ar
     3    2   28      ar
     4    3    4      ar
     5    4    5      ar
     6    5    6      ar
     7    5   27      ar
     8    6    7      ar
     9    7    8      ar
    10    8    9      ar
    11    9   10       1
    12    9   27      ar
    13   10   11       1
    14   11   12      ar
    15   11   26      ar
    16   12   13      ar
    17   13   14      ar
    18   14   15       1
    19   14   24      ar
    20   15   16       1
    21   16   17       1
    22   17   18      ar
    23   17   23      ar
    24   18   19      ar
    25   19   20      ar
    26   20   21      ar
    27   21   22       1
    28   21   23      ar
    29   24   25       1
    30   24   26      ar
    31   27   28      ar
    32    1   29       1
    33    1   30       1
    34    1   31       1
    35    3   32       1
    36    4   33       1
    37    7   34       1
    38   10   35       1
    39   12   36       1
    40   13   37       1
    41   16   38       1
    42   16   39       1
    43   18   40       1
    44   19   41       1
    45   20   42       1
    46   23   43       1
    47   26   44       1
    48   28   45       1
@<TRIPOS>SUBSTRUCTURE
     1 FMM91       1 GROUP             4 D     FMM     0 **** FMM D  91
