@<TRIPOS>MOLECULE
1bdb_NAD_1_ligand
   70    74     1     0     0
SMALL
NO_CHARGES


@<TRIPOS>ATOM
     1 PA          23.0600    48.6050    11.3550 P.3          1 NAD300   0.0000
     2 O1A         23.8540    47.4610    11.8600 O.co2        1 NAD300   0.0000
     3 O2A         21.9150    48.9050    12.2370 O.co2        1 NAD300  -1.0000
     4 O5B         22.5090    48.2970     9.9030 O.3          1 NAD300   0.0000
     5 C5B         23.2930    47.4560     8.9970 C.3          1 NAD300   0.0000
     6 C4B         22.2450    46.6740     8.1770 C.3          1 NAD300   0.0000
     7 O4B         23.0630    45.9980     7.1750 O.3          1 NAD300   0.0000
     8 C3B         21.5700    45.5860     9.0290 C.3          1 NAD300   0.0000
     9 O3B         20.1780    45.4500     8.7780 O.3          1 NAD300   0.0000
    10 C2B         22.3610    44.3380     8.6530 C.3          1 NAD300   0.0000
    11 O2B         21.6550    43.1080     8.7860 O.3          1 NAD300   0.0000
    12 C1B         22.6700    44.6410     7.1620 C.3          1 NAD300   0.0000
    13 N9A         23.8700    43.8920     6.7460 N.pl3        1 NAD300   0.0000
    14 C8A         25.0650    43.7740     7.3980 C.2          1 NAD300   0.0000
    15 N7A         25.9310    43.0020     6.7380 N.2          1 NAD300   0.0000
    16 C5A         25.2350    42.5870     5.6320 C.ar         1 NAD300   0.0000
    17 C6A         25.5930    41.7580     4.5650 C.ar         1 NAD300   0.0000
    18 N6A         26.7960    41.1720     4.4720 N.pl3        1 NAD300   0.0000
    19 N1A         24.6500    41.5670     3.6130 N.ar         1 NAD300   0.0000
    20 C2A         23.4230    42.1680     3.7210 C.ar         1 NAD300   0.0000
    21 N3A         23.0030    42.9450     4.6660 N.ar         1 NAD300   0.0000
    22 C4A         23.9570    43.1190     5.6110 C.ar         1 NAD300   0.0000
    23 O3          24.0460    49.8250    11.0790 O.3          1 NAD300   0.0000
    24 PN          23.9080    51.3290    10.5660 P.3          1 NAD300   0.0000
    25 O1N         24.3090    52.1980    11.6850 O.co2        1 NAD300   0.0000
    26 O2N         22.5530    51.6700    10.1270 O.co2        1 NAD300  -1.0000
    27 O5D         24.9460    51.3450     9.3430 O.3          1 NAD300   0.0000
    28 C5D         24.3840    51.7550     8.0610 C.3          1 NAD300   0.0000
    29 C4D         25.4610    52.4670     7.2740 C.3          1 NAD300   0.0000
    30 O4D         25.7390    53.6780     8.0330 O.3          1 NAD300   0.0000
    31 C3D         26.7820    51.6920     7.1750 C.3          1 NAD300   0.0000
    32 O3D         27.4180    51.9080     5.9250 O.3          1 NAD300   0.0000
    33 C2D         27.6160    52.2950     8.3120 C.3          1 NAD300   0.0000
    34 O2D         29.0040    52.1590     7.9810 O.3          1 NAD300   0.0000
    35 C1D         27.1400    53.7420     8.2510 C.3          1 NAD300   0.0000
    36 N1N         27.3880    54.5730     9.4180 N.ar         1 NAD300   1.0000
    37 C2N         26.9920    54.1710    10.6510 C.ar         1 NAD300   0.0000
    38 C3N         27.2810    54.9580    11.7340 C.ar         1 NAD300   0.0000
    39 C7N         26.9240    54.6850    13.2330 C.2          1 NAD300   0.0000
    40 O7N         27.4830    55.3850    14.0840 O.2          1 NAD300   0.0000
    41 N7N         26.0190    53.7310    13.4840 N.am         1 NAD300   0.0000
    42 C4N         27.9650    56.1980    11.6360 C.ar         1 NAD300   0.0000
    43 C5N         28.2520    56.5580    10.3240 C.ar         1 NAD300   0.0000
    44 C6N         28.0030    55.8300     9.1890 C.ar         1 NAD300   0.0000
    45 H5B1        23.8750    46.8285     9.5142 H            1 NAD300   0.0000
    46 H5B2        23.8609    48.0192     8.3968 H            1 NAD300   0.0000
    47 H4B         21.5737    47.2842     7.7564 H            1 NAD300   0.0000
    48 H3B         21.7130    45.7886     9.9978 H            1 NAD300   0.0000
    49 H5          20.0343    45.2098     7.8180 H            1 NAD300   0.0000
    50 H2B         23.2116    44.3019     9.1775 H            1 NAD300   0.0000
    51 H7          20.8479    43.1214     8.1957 H            1 NAD300   0.0000
    52 H1B         21.8856    44.4734     6.5648 H            1 NAD300   0.0000
    53 H8A         25.2680    44.2164     8.2716 H            1 NAD300   0.0000
    54 H6A1        27.0077    40.5864     3.6896 H            1 NAD300   0.0000
    55 H6A2        27.4811    41.3208     5.1851 H            1 NAD300   0.0000
    56 H2A         22.7756    41.9840     2.9814 H            1 NAD300   0.0000
    57 H5D1        23.6122    52.3726     8.2125 H            1 NAD300   0.0000
    58 H5D2        24.0727    50.9501     7.5558 H            1 NAD300   0.0000
    59 H4D         25.1264    52.6996     6.3608 H            1 NAD300   0.0000
    60 H3D         26.6301    50.7157     7.3290 H            1 NAD300   0.0000
    61 H17         27.1069    51.2200     5.2694 H            1 NAD300   0.0000
    62 H2D         27.4023    51.8718     9.1925 H            1 NAD300   0.0000
    63 H19         29.2271    51.1904     7.8712 H            1 NAD300   0.0000
    64 H1D         27.5626    54.1794     7.4573 H            1 NAD300   0.0000
    65 H2N         26.4953    53.3110    10.7680 H            1 NAD300   0.0000
    66 H7N1        25.7605    53.5228    14.4273 H            1 NAD300   0.0000
    67 H7N2        25.6015    53.2266    12.7282 H            1 NAD300   0.0000
    68 H4N         28.2145    56.7548    12.4283 H            1 NAD300   0.0000
    69 H5N         28.6891    57.4479    10.1935 H            1 NAD300   0.0000
    70 H6N         28.2362    56.1589     8.2739 H            1 NAD300   0.0000
@<TRIPOS>BOND
     1    1    2      ar
     2    1    3      ar
     3    1    4       1
     4    1   23       1
     5    4    5       1
     6    5    6       1
     7    6    7       1
     8    6    8       1
     9    7   12       1
    10    8    9       1
    11    8   10       1
    12   10   11       1
    13   10   12       1
    14   12   13       1
    15   13   14       1
    16   13   22       1
    17   14   15       2
    18   15   16       1
    19   16   17      ar
    20   16   22      ar
    21   17   18       1
    22   17   19      ar
    23   19   20      ar
    24   20   21      ar
    25   21   22      ar
    26   23   24       1
    27   24   25      ar
    28   24   26      ar
    29   24   27       1
    30   27   28       1
    31   28   29       1
    32   29   30       1
    33   29   31       1
    34   30   35       1
    35   31   32       1
    36   31   33       1
    37   33   34       1
    38   33   35       1
    39   35   36       1
    40   36   37      ar
    41   36   44      ar
    42   37   38      ar
    43   38   39       1
    44   38   42      ar
    45   39   40       2
    46   39   41      am
    47   42   43      ar
    48   43   44      ar
    49   44   70       1
    50    5   45       1
    51    5   46       1
    52    6   47       1
    53    8   48       1
    54    9   49       1
    55   10   50       1
    56   11   51       1
    57   12   52       1
    58   14   53       1
    59   18   54       1
    60   18   55       1
    61   20   56       1
    62   43   69       1
    63   28   57       1
    64   28   58       1
    65   29   59       1
    66   31   60       1
    67   32   61       1
    68   33   62       1
    69   34   63       1
    70   35   64       1
    71   37   65       1
    72   41   66       1
    73   41   67       1
    74   42   68       1
@<TRIPOS>SUBSTRUCTURE
     1 NAD300      1 GROUP             4 A     NAD     0 **** NAD A 300
