@<TRIPOS>MOLECULE
3t01_PPF_1_ligand
    7     6     1     0     0
SMALL
NO_CHARGES


@<TRIPOS>ATOM
     1 C1          -1.1550    32.9560    21.3010 C.2          1 PPF503   0.0000
     2 O1           0.8280    32.2500    19.8230 O.co2        1 PPF503   0.0000
     3 O2          -0.9680    30.5410    20.3340 O.co2        1 PPF503  -1.0000
     4 O3           0.6150    31.3080    22.1430 O.co2        1 PPF503  -1.0000
     5 O4          -0.8010    34.1260    21.0380 O.co2        1 PPF503   0.0000
     6 O5          -2.2420    32.7390    21.8840 O.co2        1 PPF503  -1.0000
     7 P1          -0.0980    31.6660    20.8620 P.3          1 PPF503   0.0000
@<TRIPOS>BOND
     1    1    5      ar
     2    1    6      ar
     3    1    7       1
     4    2    7      ar
     5    3    7      ar
     6    4    7      ar
@<TRIPOS>SUBSTRUCTURE
     1 PPF503      1 GROUP             4 A     PPF     0 **** PPF A 503
