@<TRIPOS>MOLECULE
4uj5_GNP_2_ligand
   46    48     1     0     0
SMALL
NO_CHARGES


@<TRIPOS>ATOM
     1 PG          66.4950    11.6650    24.4590 P.3          1 GNP201   0.0000
     2 O1G         67.6670    12.1720    25.2680 O.co2        1 GNP201   0.0000
     3 O2G         66.8000    10.1950    24.2680 O.co2        1 GNP201  -1.0000
     4 O3G         65.1250    11.9860    24.9980 O.co2        1 GNP201  -1.0000
     5 N3B         66.5020    12.3830    23.0380 N.3          1 GNP201   0.0000
     6 PB          66.7060    11.6290    21.6550 P.3          1 GNP201   0.0000
     7 O1B         68.0640    11.0400    21.6380 O.co2        1 GNP201   0.0000
     8 O2B         65.5540    10.7210    21.4620 O.co2        1 GNP201  -1.0000
     9 O3A         66.6270    12.6700    20.5430 O.3          1 GNP201   0.0000
    10 PA          65.3000    13.1900    19.9830 P.3          1 GNP201   0.0000
    11 O1A         64.6350    12.1290    19.1960 O.co2        1 GNP201   0.0000
    12 O2A         64.4960    13.8480    21.0410 O.co2        1 GNP201  -1.0000
    13 O5'         65.7040    14.3180    18.9560 O.3          1 GNP201   0.0000
    14 C5'         66.6290    15.3430    19.3310 C.3          1 GNP201   0.0000
    15 C4'         66.5050    16.5630    18.4290 C.3          1 GNP201   0.0000
    16 O4'         67.0600    16.2640    17.1200 O.3          1 GNP201   0.0000
    17 C3'         65.0780    17.0350    18.1750 C.3          1 GNP201   0.0000
    18 O3'         65.0380    18.4440    17.9650 O.3          1 GNP201   0.0000
    19 C2'         64.7230    16.2940    16.8950 C.3          1 GNP201   0.0000
    20 O2'         63.6690    16.9370    16.2110 O.3          1 GNP201   0.0000
    21 C1'         66.0500    16.3690    16.1370 C.3          1 GNP201   0.0000
    22 N9          66.2430    15.3030    15.1510 N.pl3        1 GNP201   0.0000
    23 C8          65.9380    13.9660    15.2960 C.2          1 GNP201   0.0000
    24 N7          66.2150    13.2440    14.2450 N.2          1 GNP201   1.0000
    25 C5          66.7440    14.1600    13.3420 C.2          1 GNP201   0.0000
    26 C6          67.2220    13.9650    12.0240 C.2          1 GNP201   0.0000
    27 O6          67.2770    12.9110    11.3790 O.2          1 GNP201   0.0000
    28 N1          67.6650    15.1540    11.4520 N.pl3        1 GNP201   0.0000
    29 C2          67.6500    16.3790    12.0720 C.2          1 GNP201   0.0000
    30 N2          68.1220    17.4120    11.3590 N.pl3        1 GNP201   0.0000
    31 N3          67.2050    16.5780    13.3100 N.2          1 GNP201   0.0000
    32 C4          66.7670    15.4290    13.8820 C.2          1 GNP201   0.0000
    33 H3B         67.2323    13.0646    23.0838 H            1 GNP201   0.0000
    34 H5'1        67.5591    14.9820    19.2634 H            1 GNP201   0.0000
    35 H5'2        66.4455    15.6168    20.2751 H            1 GNP201   0.0000
    36 H4'         67.0247    17.3155    18.8337 H            1 GNP201   0.0000
    37 H3'         64.4727    16.7667    18.9244 H            1 GNP201   0.0000
    38 H6          64.0939    18.7299    17.8008 H            1 GNP201   0.0000
    39 H2'         64.4849    15.3433    17.0937 H            1 GNP201   0.0000
    40 H8          62.7940    16.5681    16.5246 H            1 GNP201   0.0000
    41 H1'         66.1217    17.2569    15.6826 H            1 GNP201   0.0000
    42 H10         65.5407    13.5845    16.1306 H            1 GNP201   0.0000
    43 H11         68.0213    15.1130    10.5185 H            1 GNP201   0.0000
    44 H12         68.1367    18.3292    11.7572 H            1 GNP201   0.0000
    45 H13         68.4593    17.2651    10.4291 H            1 GNP201   0.0000
    46 H14         66.0787    12.2615    14.1184 H            1 GNP201   0.0000
@<TRIPOS>BOND
     1    1    2      ar
     2    1    3      ar
     3    1    4      ar
     4    1    5       1
     5    5    6       1
     6    6    7      ar
     7    6    8      ar
     8    6    9       1
     9    9   10       1
    10   10   11      ar
    11   10   12      ar
    12   10   13       1
    13   13   14       1
    14   14   15       1
    15   15   16       1
    16   15   17       1
    17   16   21       1
    18   17   18       1
    19   17   19       1
    20   19   20       1
    21   19   21       1
    22   21   22       1
    23   22   23       1
    24   22   32       1
    25   23   24       2
    26   24   25       1
    27   25   26       1
    28   25   32       2
    29   26   27       2
    30   26   28       1
    31   28   29       1
    32   29   30       1
    33   29   31       2
    34   31   32       1
    35   30   45       1
    36   30   44       1
    37    5   33       1
    38   28   43       1
    39   23   42       1
    40   14   34       1
    41   14   35       1
    42   15   36       1
    43   17   37       1
    44   18   38       1
    45   19   39       1
    46   20   40       1
    47   21   41       1
    48   24   46       1
@<TRIPOS>SUBSTRUCTURE
     1 GNP201      1 GROUP             4 B     GNP     0 **** GNP B 201
