@<TRIPOS>MOLECULE
1nvt_NAP_2_ligand
   73    77     1     0     0
SMALL
NO_CHARGES


@<TRIPOS>ATOM
     1 PA         -13.0580    -7.7950    55.7660 P.3          1 NAP289   0.0000
     2 O1A        -12.2910    -6.4960    55.6310 O.co2        1 NAP289   0.0000
     3 O2A        -12.1480    -8.9680    56.1070 O.co2        1 NAP289  -1.0000
     4 O5B        -14.1810    -7.6450    56.7890 O.3          1 NAP289   0.0000
     5 C5B        -14.0390    -8.0910    58.1370 C.3          1 NAP289   0.0000
     6 C4B        -15.1840    -8.9760    58.5600 C.3          1 NAP289   0.0000
     7 O4B        -14.7380   -10.0100    59.4440 O.3          1 NAP289   0.0000
     8 C3B        -16.2930    -8.2810    59.3200 C.3          1 NAP289   0.0000
     9 O3B        -17.5620    -8.7830    58.9090 O.3          1 NAP289   0.0000
    10 C2B        -15.9620    -8.5940    60.7870 C.3          1 NAP289   0.0000
    11 O2B        -17.0920    -8.3830    61.6890 O.3          1 NAP289   0.0000
    12 C1B        -15.5660   -10.0190    60.6090 C.3          1 NAP289   0.0000
    13 N9A        -14.9400   -10.9770    61.4310 N.pl3        1 NAP289   0.0000
    14 C8A        -13.5980   -11.2870    61.2990 C.2          1 NAP289   0.0000
    15 N7A        -13.2170   -12.2320    62.1990 N.2          1 NAP289   0.0000
    16 C5A        -14.3450   -12.5070    62.8980 C.ar         1 NAP289   0.0000
    17 C6A        -14.5080   -13.4150    63.9530 C.ar         1 NAP289   0.0000
    18 N6A        -13.5020   -14.1470    64.3980 N.pl3        1 NAP289   0.0000
    19 N1A        -15.7750   -13.5460    64.5460 N.ar         1 NAP289   0.0000
    20 C2A        -16.8400   -12.7900    64.0970 C.ar         1 NAP289   0.0000
    21 N3A        -16.6650   -11.9070    63.0650 N.ar         1 NAP289   0.0000
    22 C4A        -15.4270   -11.7450    62.4480 C.ar         1 NAP289   0.0000
    23 O3         -13.7650    -8.1810    54.4870 O.3          1 NAP289   0.0000
    24 PN         -13.7770    -9.3610    53.5400 P.3          1 NAP289   0.0000
    25 O1N        -12.3740    -9.4490    52.9650 O.co2        1 NAP289   0.0000
    26 O2N        -14.7710    -9.0450    52.4510 O.co2        1 NAP289  -1.0000
    27 O5D        -14.1710   -10.7070    54.1320 O.3          1 NAP289   0.0000
    28 C5D        -14.9260   -11.9150    53.9920 C.3          1 NAP289   0.0000
    29 C4D        -14.6420   -13.2750    53.3960 C.3          1 NAP289   0.0000
    30 O4D        -14.7100   -13.2300    51.9600 O.3          1 NAP289   0.0000
    31 C3D        -13.2550   -13.6920    53.8100 C.3          1 NAP289   0.0000
    32 O3D        -13.2470   -14.9690    54.4550 O.3          1 NAP289   0.0000
    33 C2D        -12.4500   -13.6390    52.5340 C.3          1 NAP289   0.0000
    34 O2D        -11.6460   -14.8110    52.4520 O.3          1 NAP289   0.0000
    35 C1D        -13.4270   -13.5260    51.3930 C.3          1 NAP289   0.0000
    36 N1N        -13.8020   -13.4530    50.0720 N.ar         1 NAP289   1.0000
    37 C2N        -14.1960   -14.4400    49.0910 C.ar         1 NAP289   0.0000
    38 C3N        -14.5050   -14.0370    47.7580 C.ar         1 NAP289   0.0000
    39 C7N        -14.9070   -15.0580    46.7130 C.2          1 NAP289   0.0000
    40 O7N        -15.1940   -14.6070    45.3890 O.2          1 NAP289   0.0000
    41 N7N        -14.9640   -16.3640    47.1180 N.am         1 NAP289   0.0000
    42 C4N        -14.4320   -12.6370    47.3810 C.ar         1 NAP289   0.0000
    43 C5N        -14.0300   -11.5560    48.3640 C.ar         1 NAP289   0.0000
    44 C6N        -13.7060   -12.0310    49.7620 C.ar         1 NAP289   0.0000
    45 P2B        -16.3130    -7.0810    62.1190 P.3          1 NAP289   0.0000
    46 O1X        -14.9560    -7.4900    62.7260 O.co2        1 NAP289   0.0000
    47 O2X        -17.3040    -6.5380    63.1290 O.co2        1 NAP289  -1.0000
    48 O3X        -16.0260    -5.8730    61.2320 O.co2        1 NAP289  -1.0000
    49 H5B1       -14.0070    -7.2936    58.7397 H            1 NAP289   0.0000
    50 H5B2       -13.1854    -8.6054    58.2191 H            1 NAP289   0.0000
    51 H4B        -15.5755    -9.4017    57.7442 H            1 NAP289   0.0000
    52 H3B        -16.2487    -7.2944    59.1628 H            1 NAP289   0.0000
    53 H5         -17.4668    -9.7368    58.6242 H            1 NAP289   0.0000
    54 H2B        -15.1763    -8.0526    61.0862 H            1 NAP289   0.0000
    55 H1B        -16.4063   -10.4692    60.3069 H            1 NAP289   0.0000
    56 H8A        -12.9863   -10.8692    60.6272 H            1 NAP289   0.0000
    57 H6A1       -13.6451   -14.7876    65.1524 H            1 NAP289   0.0000
    58 H6A2       -12.5975   -14.0604    63.9804 H            1 NAP289   0.0000
    59 H2A        -17.7384   -12.8873    64.5252 H            1 NAP289   0.0000
    60 H5D1       -15.7373   -11.6153    53.4900 H            1 NAP289   0.0000
    61 H5D2       -15.1787   -12.1319    54.9349 H            1 NAP289   0.0000
    62 H4D        -15.3072   -13.9369    53.7416 H            1 NAP289   0.0000
    63 H3D        -12.8924   -13.0104    54.4455 H            1 NAP289   0.0000
    64 H16        -13.9934   -15.5289    54.0952 H            1 NAP289   0.0000
    65 H2D        -11.8599   -12.8318    52.5470 H            1 NAP289   0.0000
    66 H18        -11.8081   -15.3834    53.2558 H            1 NAP289   0.0000
    67 H1D        -13.6123   -14.5083    51.4191 H            1 NAP289   0.0000
    68 H2N        -14.2518   -15.4050    49.3472 H            1 NAP289   0.0000
    69 H7N1       -15.2239   -17.0782    46.4681 H            1 NAP289   0.0000
    70 H7N2       -14.7457   -16.6041    48.0639 H            1 NAP289   0.0000
    71 H4N        -14.6544   -12.3773    46.4413 H            1 NAP289   0.0000
    72 H5N        -13.9822   -10.5914    48.1048 H            1 NAP289   0.0000
    73 H6N        -13.4289   -11.3776    50.4665 H            1 NAP289   0.0000
@<TRIPOS>BOND
     1    1    2      ar
     2    1    3      ar
     3    1    4       1
     4    1   23       1
     5    4    5       1
     6    5    6       1
     7    6    7       1
     8    6    8       1
     9    7   12       1
    10    8    9       1
    11    8   10       1
    12   10   11       1
    13   10   12       1
    14   45   48      ar
    15   11   45       1
    16   12   13       1
    17   13   14       1
    18   13   22       1
    19   14   15       2
    20   15   16       1
    21   16   17      ar
    22   16   22      ar
    23   17   18       1
    24   17   19      ar
    25   19   20      ar
    26   20   21      ar
    27   21   22      ar
    28   23   24       1
    29   24   25      ar
    30   24   26      ar
    31   24   27       1
    32   27   28       1
    33   28   29       1
    34   29   30       1
    35   29   31       1
    36   30   35       1
    37   31   32       1
    38   31   33       1
    39   33   34       1
    40   33   35       1
    41   35   36       1
    42   36   37      ar
    43   36   44      ar
    44   37   38      ar
    45   38   39       1
    46   38   42      ar
    47   39   40       2
    48   39   41      am
    49   42   43      ar
    50   43   44      ar
    51   45   46      ar
    52   45   47      ar
    53   43   72       1
    54    5   49       1
    55    5   50       1
    56    6   51       1
    57    8   52       1
    58    9   53       1
    59   10   54       1
    60   12   55       1
    61   14   56       1
    62   18   57       1
    63   18   58       1
    64   20   59       1
    65   44   73       1
    66   28   60       1
    67   28   61       1
    68   29   62       1
    69   31   63       1
    70   32   64       1
    71   33   65       1
    72   34   66       1
    73   35   67       1
    74   37   68       1
    75   41   69       1
    76   41   70       1
    77   42   71       1
@<TRIPOS>SUBSTRUCTURE
     1 NAP289      1 GROUP             4 B     NAP     0 **** NAP B 289
