@<TRIPOS>MOLECULE
4iji_99T_4_ligand
   44    43     1     0     0
SMALL
NO_CHARGES


@<TRIPOS>ATOM
     1 O32         12.4080    41.3360     9.4120 O.co2        1 99T501   0.0000
     2 C3          13.0130    41.1480     8.3190 C.2          1 99T501   0.0000
     3 O31         13.3550    42.1240     7.5940 O.co2        1 99T501  -1.0000
     4 CA3         13.3450    39.7740     7.8590 C.3          1 99T501   0.0000
     5 N3          13.8630    39.7320     6.5270 N.am         1 99T501   0.0000
     6 C2          15.0610    39.0380     6.2150 C.2          1 99T501   0.0000
     7 O2          15.7140    38.4580     7.0880 O.2          1 99T501   0.0000
     8 CA2         15.5190    39.0490     4.7990 C.3          1 99T501   0.0000
     9 CB2         15.0660    37.8080     4.1040 C.3          1 99T501   0.0000
    10 SG2         15.1670    37.8960     2.3440 S.3          1 99T501   0.0000
    11 N2          16.9480    39.1590     4.8280 N.am         1 99T501   0.0000
    12 CD1         17.5630    40.4300     4.6120 C.2          1 99T501   0.0000
    13 OE1         16.8790    41.4210     4.3670 O.2          1 99T501   0.0000
    14 CG1         19.0530    40.5280     4.6770 C.3          1 99T501   0.0000
    15 CB1         19.6980    41.8450     4.4240 C.3          1 99T501   0.0000
    16 CA1         21.0640    41.9970     4.9870 C.3          1 99T501   0.0000
    17 N1          21.5220    43.3440     4.7340 N.4          1 99T501   1.0000
    18 C1          21.9900    41.0030     4.3750 C.2          1 99T501   0.0000
    19 O01         22.6440    41.3110     3.3470 O.co2        1 99T501   0.0000
    20 O02         22.1200    39.8660     4.9220 O.co2        1 99T501  -1.0000
    21 C08         13.7890    37.0410     1.6320 C.3          1 99T501   0.0000
    22 C09         12.4080    37.6160     1.6900 C.3          1 99T501   0.0000
    23 C10         11.3330    36.7480     1.1150 C.2          1 99T501   0.0000
    24 O11         10.8250    35.8370     1.8200 O.co2        1 99T501   0.0000
    25 O12         10.9250    36.9020    -0.0740 O.co2        1 99T501  -1.0000
    26 HA31        12.5143    39.2184     7.8939 H            1 99T501   0.0000
    27 HA32        14.0297    39.3891     8.4779 H            1 99T501   0.0000
    28 H3          13.3687    40.2036     5.7968 H            1 99T501   0.0000
    29 HA2         15.1356    39.8469     4.3339 H            1 99T501   0.0000
    30 HB21        14.1139    37.6355     4.3564 H            1 99T501   0.0000
    31 HB22        15.6362    37.0474     4.4144 H            1 99T501   0.0000
    32 H7          17.5112    38.3504     4.9985 H            1 99T501   0.0000
    33 HG11        19.4191    39.8873     4.0021 H            1 99T501   0.0000
    34 HG12        19.3266    40.2385     5.5942 H            1 99T501   0.0000
    35 HB11        19.1180    42.5555     4.8225 H            1 99T501   0.0000
    36 HB12        19.7545    41.9771     3.4344 H            1 99T501   0.0000
    37 HA1         21.0285    41.8447     5.9747 H            1 99T501   0.0000
    38 H13         21.2581    43.9346     5.4966 H            1 99T501   0.0000
    39 H14         22.5176    43.3455     4.6402 H            1 99T501   0.0000
    40 H15         13.7444    36.1495     2.0829 H            1 99T501   0.0000
    41 H16         14.0032    36.9144     0.6635 H            1 99T501   0.0000
    42 H17         12.4109    38.4798     1.1862 H            1 99T501   0.0000
    43 H18         12.1852    37.7902     2.6492 H            1 99T501   0.0000
    44 H19         21.1072    43.6841     3.8900 H            1 99T501   0.0000
@<TRIPOS>BOND
     1    1    2      ar
     2    2    3      ar
     3    2    4       1
     4    4    5       1
     5    5    6      am
     6    6    7       2
     7    6    8       1
     8    8    9       1
     9    8   11       1
    10    9   10       1
    11   10   21       1
    12   11   12      am
    13   12   13       2
    14   12   14       1
    15   14   15       1
    16   15   16       1
    17   16   17       1
    18   16   18       1
    19   18   19      ar
    20   18   20      ar
    21   21   22       1
    22   22   23       1
    23   23   24      ar
    24   23   25      ar
    25   22   43       1
    26    4   26       1
    27    4   27       1
    28    5   28       1
    29    8   29       1
    30    9   30       1
    31    9   31       1
    32   11   32       1
    33   14   33       1
    34   14   34       1
    35   15   35       1
    36   15   36       1
    37   16   37       1
    38   17   38       1
    39   17   39       1
    40   17   44       1
    41   21   40       1
    42   21   41       1
    43   22   42       1
@<TRIPOS>SUBSTRUCTURE
     1 99T501      1 GROUP             4 D     99T     0 **** 99T D 501
