@<TRIPOS>MOLECULE
1zdw_FLV_1_ligand
   21    22     1     0     0
SMALL
NO_CHARGES


@<TRIPOS>ATOM
     1 OAB         28.9390    28.6150    11.0540 O.2          1 FLV401   0.0000
     2 CAM         30.0470    28.8780    10.6080 C.2          1 FLV401   0.0000
     3 CAN         30.2130    29.5710     9.2840 C.ar         1 FLV401   0.0000
     4 CAH         29.0290    29.9310     8.5730 C.ar         1 FLV401   0.0000
     5 CAI         29.0910    30.5950     7.3150 C.ar         1 FLV401   0.0000
     6 OAC         27.9370    30.9090     6.6830 O.3          1 FLV401   0.0000
     7 CAF         30.3890    30.9080     6.7750 C.ar         1 FLV401   0.0000
     8 CAK         31.6320    30.5830     7.4370 C.ar         1 FLV401   0.0000
     9 OAE         32.7860    30.9400     6.8130 O.3          1 FLV401   0.0000
    10 CAO         31.5530    29.8960     8.7360 C.ar         1 FLV401   0.0000
    11 CAL         32.7860    29.4890     9.5460 C.2          1 FLV401   0.0000
    12 OAA         33.9480    29.7000     9.1940 O.2          1 FLV401   0.0000
    13 CAG         32.5610    28.7820    10.8730 C.2          1 FLV401   0.0000
    14 CAJ         31.2950    28.4880    11.3750 C.2          1 FLV401   0.0000
    15 OAD         31.1300    27.8610    12.5610 O.3          1 FLV401   0.0000
    16 HAH         28.1363    29.7121     8.9670 H            1 FLV401   0.0000
    17 HAC         27.0588    30.6747     7.1000 H            1 FLV401   0.0000
    18 HAF         30.4326    31.3764     5.8926 H            1 FLV401   0.0000
    19 HAE         33.6680    30.7338     7.2368 H            1 FLV401   0.0000
    20 HAG         33.3602    28.5151    11.4115 H            1 FLV401   0.0000
    21 HAD         30.2095    27.6707    12.9021 H            1 FLV401   0.0000
@<TRIPOS>BOND
     1    1    2       2
     2    2    3       1
     3    2   14       1
     4    3    4      ar
     5    3   10      ar
     6    4    5      ar
     7    5    6       1
     8    5    7      ar
     9    7    8      ar
    10    8    9       1
    11    8   10      ar
    12   10   11       1
    13   11   12       2
    14   11   13       1
    15   13   14       2
    16   14   15       1
    17    4   16       1
    18    6   17       1
    19    7   18       1
    20    9   19       1
    21   13   20       1
    22   15   21       1
@<TRIPOS>SUBSTRUCTURE
     1 FLV401      1 GROUP             4 A     FLV     0 **** FLV A 401
