@<TRIPOS>MOLECULE
3wsb_RWZ_3_ligand
   64    66     1     0     0
SMALL
NO_CHARGES


@<TRIPOS>ATOM
     1 CAA        -36.5050    52.6380   -49.1820 C.3          1 RWZ402   0.0000
     2 CAB        -34.1360    52.6470   -48.1400 C.3          1 RWZ402   0.0000
     3 CAC        -36.4920    50.0900   -43.4980 C.3          1 RWZ402   0.0000
     4 CAD        -35.9580    51.3190   -47.0920 C.2          1 RWZ402   0.0000
     5 CAE        -36.0540    47.6910   -44.0560 C.2          1 RWZ402   0.0000
     6 CAF        -35.0640    50.8170   -45.9780 C.3          1 RWZ402   0.0000
     7 CAG        -36.6710    47.2040   -42.7710 C.3          1 RWZ402   0.0000
     8 CAH        -35.2320    46.1080   -41.0120 C.3          1 RWZ402   0.0000
     9 CAI        -33.7860    45.8140   -41.2090 C.3          1 RWZ402   0.0000
    10 CAJ        -35.3040    49.3480   -45.7620 C.3          1 RWZ402   0.0000
    11 CAK        -29.7160    49.7080   -43.0160 C.3          1 RWZ402   0.0000
    12 CAL        -32.2270    49.5840   -42.8100 C.3          1 RWZ402   0.0000
    13 CAM        -31.0330    48.0580   -44.4140 C.3          1 RWZ402   0.0000
    14 CAN        -30.7580    48.7350   -40.9140 C.3          1 RWZ402   0.0000
    15 CAO        -29.5390    47.2370   -42.5410 C.3          1 RWZ402   0.0000
    16 NAP        -35.9070    46.0660   -42.2910 N.4          1 RWZ402   1.0000
    17 NAQ        -33.1190    47.0680   -41.5120 N.4          1 RWZ402   1.0000
    18 CAR        -35.5580    52.1710   -48.1100 C.2          1 RWZ402   0.0000
    19 CAS        -35.9560    49.0220   -44.4210 C.2          1 RWZ402   0.0000
    20 CAT        -30.9010    49.8180   -42.0340 C.3          1 RWZ402   0.0000
    21 CAU        -29.6980    48.2990   -43.6480 C.3          1 RWZ402   0.0000
    22 CAV        -32.2260    48.1640   -43.4470 C.3          1 RWZ402   0.0000
    23 CAW        -30.7380    47.3250   -41.5580 C.3          1 RWZ402   0.0000
    24 CAX        -32.0690    47.0800   -42.3430 C.3          1 RWZ402   0.0000
    25 HAA1       -37.4081    52.2377   -49.0265 H            1 RWZ402   0.0000
    26 HAA2       -36.5733    53.6353   -49.1551 H            1 RWZ402   0.0000
    27 HAA3       -36.1630    52.3514   -50.0769 H            1 RWZ402   0.0000
    28 HAB1       -33.6362    52.2529   -47.3687 H            1 RWZ402   0.0000
    29 HAB2       -33.7067    52.3607   -48.9966 H            1 RWZ402   0.0000
    30 HAB3       -34.1170    53.6447   -48.0748 H            1 RWZ402   0.0000
    31 HAC1       -36.3434    50.9900   -43.9078 H            1 RWZ402   0.0000
    32 HAC2       -37.4713    49.9464   -43.3552 H            1 RWZ402   0.0000
    33 HAC3       -36.0164    50.0409   -42.6197 H            1 RWZ402   0.0000
    34 HAD        -36.9099    51.0126   -47.0937 H            1 RWZ402   0.0000
    35 HAE        -35.6908    47.0062   -44.6878 H            1 RWZ402   0.0000
    36 HAF1       -35.2700    51.3153   -45.1358 H            1 RWZ402   0.0000
    37 HAF2       -34.1069    50.9648   -46.2271 H            1 RWZ402   0.0000
    38 HAG1       -37.6181    46.9285   -42.9355 H            1 RWZ402   0.0000
    39 HAG2       -36.6502    47.9352   -42.0892 H            1 RWZ402   0.0000
    40 HAH1       -35.3361    47.0173   -40.6090 H            1 RWZ402   0.0000
    41 HAH2       -35.6316    45.4248   -40.4008 H            1 RWZ402   0.0000
    42 HAI1       -33.6688    45.1736   -41.9680 H            1 RWZ402   0.0000
    43 HAI2       -33.4024    45.4167   -40.3754 H            1 RWZ402   0.0000
    44 HAJ1       -34.4244    48.8745   -45.8085 H            1 RWZ402   0.0000
    45 HAJ2       -35.9008    49.0152   -46.4921 H            1 RWZ402   0.0000
    46 HAK1       -28.8597    49.8630   -42.5233 H            1 RWZ402   0.0000
    47 HAK2       -29.8153    50.3948   -43.7361 H            1 RWZ402   0.0000
    48 HAL1       -32.3143    50.2708   -43.5316 H            1 RWZ402   0.0000
    49 HAL2       -32.9987    49.6636   -42.1790 H            1 RWZ402   0.0000
    50 HAM1       -31.0192    47.1456   -44.8231 H            1 RWZ402   0.0000
    51 HAM2       -31.1294    48.7449   -45.1343 H            1 RWZ402   0.0000
    52 HAN1       -31.5317    48.8028   -40.2841 H            1 RWZ402   0.0000
    53 HAN2       -29.9058    48.8845   -40.4126 H            1 RWZ402   0.0000
    54 HAO1       -28.6875    47.4006   -42.0428 H            1 RWZ402   0.0000
    55 HAO2       -29.5137    46.3268   -42.9543 H            1 RWZ402   0.0000
    56 HAP1       -35.2032    45.8858   -42.9782 H            1 RWZ402   0.0000
    57 HAQ1       -32.8035    47.4458   -40.6415 H            1 RWZ402   0.0000
    58 HAT        -30.9106    50.7285   -41.6207 H            1 RWZ402   0.0000
    59 HAU        -28.9314    48.2309   -44.2865 H            1 RWZ402   0.0000
    60 HAV        -33.0799    48.0169   -43.9462 H            1 RWZ402   0.0000
    61 HAW        -30.6376    46.6320   -40.8441 H            1 RWZ402   0.0000
    62 HAX        -32.0108    46.1861   -42.7875 H            1 RWZ402   0.0000
    63 HAP2       -36.5410    45.2936   -42.2527 H            1 RWZ402   0.0000
    64 HAQ2       -33.8086    47.6743   -41.9081 H            1 RWZ402   0.0000
@<TRIPOS>BOND
     1    1   18       1
     2    2   18       1
     3    3   19       1
     4    4    6       1
     5    4   18       2
     6    5    7       1
     7    5   19       2
     8    6   10       1
     9    7   16       1
    10    8    9       1
    11    8   16       1
    12    9   17       1
    13   10   19       1
    14   11   20       1
    15   11   21       1
    16   12   20       1
    17   12   22       1
    18   13   21       1
    19   13   22       1
    20   14   20       1
    21   14   23       1
    22   15   21       1
    23   15   23       1
    24   17   24       1
    25   22   24       1
    26   23   24       1
    27    1   25       1
    28    1   26       1
    29    1   27       1
    30    2   28       1
    31    2   29       1
    32    2   30       1
    33    3   31       1
    34    3   32       1
    35    3   33       1
    36    4   34       1
    37    5   35       1
    38    6   36       1
    39    6   37       1
    40    7   38       1
    41    7   39       1
    42    8   40       1
    43    8   41       1
    44    9   42       1
    45    9   43       1
    46   10   44       1
    47   10   45       1
    48   11   46       1
    49   11   47       1
    50   12   48       1
    51   12   49       1
    52   13   50       1
    53   13   51       1
    54   14   52       1
    55   14   53       1
    56   15   54       1
    57   15   55       1
    58   16   56       1
    59   17   57       1
    60   20   58       1
    61   21   59       1
    62   22   60       1
    63   23   61       1
    64   24   62       1
    65   16   63       1
    66   17   64       1
@<TRIPOS>SUBSTRUCTURE
     1 RWZ402      1 GROUP             4 C     RWZ     0 **** RWZ C 402
