@<TRIPOS>MOLECULE
4uth_FMN_1_ligand
   50    52     1     0     0
SMALL
NO_CHARGES


@<TRIPOS>ATOM
     1 N1          -9.7540   -17.7000   -19.0100 N.2          1 FMN1361   0.0000
     2 C2          -9.4270   -18.3670   -20.1270 C.2          1 FMN1361   0.0000
     3 O2          -9.0990   -19.5870   -20.0780 O.2          1 FMN1361   0.0000
     4 N3          -9.6750   -17.8050   -21.3640 N.pl3        1 FMN1361   0.0000
     5 C4          -9.9240   -16.4930   -21.5300 C.2          1 FMN1361   0.0000
     6 O4          -9.9550   -15.9610   -22.6200 O.2          1 FMN1361   0.0000
     7 C4A        -10.4830   -15.8300   -20.3310 C.2          1 FMN1361   0.0000
     8 N5         -10.9960   -14.5830   -20.4390 N.2          1 FMN1361   0.0000
     9 C5A        -11.0110   -13.8120   -19.2870 C.ar         1 FMN1361   0.0000
    10 C6         -11.2920   -12.4270   -19.4060 C.ar         1 FMN1361   0.0000
    11 C7         -11.1600   -11.5940   -18.3090 C.ar         1 FMN1361   0.0000
    12 C7M        -11.2050   -10.1360   -18.4990 C.3          1 FMN1361   0.0000
    13 C8         -10.8500   -12.1550   -17.0330 C.ar         1 FMN1361   0.0000
    14 C8M        -10.7430   -11.2800   -15.8110 C.3          1 FMN1361   0.0000
    15 C9         -10.7950   -13.5410   -16.9070 C.ar         1 FMN1361   0.0000
    16 C9A        -10.7160   -14.3610   -18.0490 C.ar         1 FMN1361   0.0000
    17 N10        -10.3880   -15.7080   -17.9430 N.pl3        1 FMN1361   0.0000
    18 C10        -10.2350   -16.4200   -19.1110 C.2          1 FMN1361   0.0000
    19 C1'         -9.8550   -16.2850   -16.6660 C.3          1 FMN1361   0.0000
    20 C2'         -8.4520   -15.7690   -16.3860 C.3          1 FMN1361   0.0000
    21 O2'         -7.4860   -16.3460   -17.2650 O.3          1 FMN1361   0.0000
    22 C3'         -8.0160   -16.0930   -14.9430 C.3          1 FMN1361   0.0000
    23 O3'         -8.0390   -17.5110   -14.7370 O.3          1 FMN1361   0.0000
    24 C4'         -8.8990   -15.4510   -13.8670 C.3          1 FMN1361   0.0000
    25 O4'         -9.0380   -14.0400   -14.1140 O.3          1 FMN1361   0.0000
    26 C5'         -8.3280   -15.6530   -12.4600 C.3          1 FMN1361   0.0000
    27 O5'         -7.0500   -15.0410   -12.2570 O.3          1 FMN1361   0.0000
    28 P           -6.9260   -13.6170   -11.4840 P.3          1 FMN1361   0.0000
    29 O1P         -7.6990   -12.6230   -12.3270 O.co2        1 FMN1361   0.0000
    30 O2P         -7.5450   -13.7950   -10.1200 O.co2        1 FMN1361  -1.0000
    31 O3P         -5.4490   -13.3810   -11.4860 O.co2        1 FMN1361  -1.0000
    32 H1          -9.6693   -18.3975   -22.1695 H            1 FMN1361   0.0000
    33 H2         -11.5863   -12.0515   -20.2849 H            1 FMN1361   0.0000
    34 H7M1       -11.0957    -9.6811   -17.6152 H            1 FMN1361   0.0000
    35 H7M2       -10.4654    -9.8567   -19.1114 H            1 FMN1361   0.0000
    36 H7M3       -12.0845    -9.8790   -18.8996 H            1 FMN1361   0.0000
    37 H8M1       -10.5210   -11.8440   -15.0156 H            1 FMN1361   0.0000
    38 H8M2       -10.0224   -10.6006   -15.9495 H            1 FMN1361   0.0000
    39 H8M3       -11.6146   -10.8147   -15.6568 H            1 FMN1361   0.0000
    40 H9         -10.8118   -13.9573   -15.9979 H            1 FMN1361   0.0000
    41 H1'1        -9.8289   -17.2818   -16.7421 H            1 FMN1361   0.0000
    42 H1'2       -10.4572   -16.0240   -15.9115 H            1 FMN1361   0.0000
    43 H2'         -8.4448   -14.7765   -16.5082 H            1 FMN1361   0.0000
    44 H13         -7.3972   -15.7769   -18.0824 H            1 FMN1361   0.0000
    45 H3'         -7.0780   -15.7703   -14.8162 H            1 FMN1361   0.0000
    46 H15         -8.9659   -17.8548   -14.8878 H            1 FMN1361   0.0000
    47 H4'         -9.8053   -15.8718   -13.9062 H            1 FMN1361   0.0000
    48 H17         -8.6814   -13.5281   -13.3325 H            1 FMN1361   0.0000
    49 H5'1        -8.2359   -16.6352   -12.2960 H            1 FMN1361   0.0000
    50 H5'2        -8.9713   -15.2638   -11.8007 H            1 FMN1361   0.0000
@<TRIPOS>BOND
     1    1    2       1
     2    1   18       2
     3    2    3       2
     4    2    4       1
     5    4    5       1
     6    5    6       2
     7    5    7       1
     8    7    8       2
     9    7   18       1
    10    8    9       1
    11    9   10      ar
    12    9   16      ar
    13   10   11      ar
    14   11   12       1
    15   11   13      ar
    16   13   14       1
    17   13   15      ar
    18   15   16      ar
    19   16   17       1
    20   17   18       1
    21   17   19       1
    22   19   20       1
    23   20   21       1
    24   20   22       1
    25   22   23       1
    26   22   24       1
    27   24   25       1
    28   24   26       1
    29   26   27       1
    30   27   28       1
    31   28   29      ar
    32   28   30      ar
    33   28   31      ar
    34    4   32       1
    35   10   33       1
    36   12   34       1
    37   12   35       1
    38   12   36       1
    39   14   37       1
    40   14   38       1
    41   14   39       1
    42   15   40       1
    43   19   41       1
    44   19   42       1
    45   20   43       1
    46   21   44       1
    47   22   45       1
    48   23   46       1
    49   24   47       1
    50   25   48       1
    51   26   49       1
    52   26   50       1
@<TRIPOS>SUBSTRUCTURE
     1 FMN1361     1 GROUP             4 A     FMN     0 **** FMN A1361
