@<TRIPOS>MOLECULE
./coach420/1g6c/ligand.pdb
 32 27 0 0 0
SMALL
GASTEIGER

@<TRIPOS>ATOM
      1 MG         18.6090   49.3560   15.0650 Mg    2007  MG2007      0.0000
      2  C2A       16.3750   41.2160   15.7740 C.2   2001  IFP2001     0.0000
      3  CM2       16.8550   39.8510   15.6340 C.3   2001  IFP2001     0.0000
      4  N3A       17.0230   42.0700   16.5520 N.2   2001  IFP2001     0.5000
      5  C4A       16.5520   43.3540   16.6800 C.2   2001  IFP2001     0.0000
      6  N4A       17.2410   44.1730   17.4770 N.2   2001  IFP2001     0.5000
      7  C5A       15.3470   43.7530   15.9590 C.2   2001  IFP2001     0.0000
      8  C6A       14.7460   42.8100   15.1780 C.2   2001  IFP2001     0.0000
      9  C7A       14.7370   45.1090   16.0210 C.3   2001  IFP2001     0.0000
     10  F1        16.2210   39.0440   16.4630 F     2001  IFP2001     0.0000
     11  F2        18.1430   39.7980   15.9080 F     2001  IFP2001     0.0000
     12  F3        16.6430   39.4150   14.4120 F     2001  IFP2001     0.0000
     13  O1        16.4310   46.6800   14.5740 O.3   2003  POP2003     0.0000
     14  O2        16.5690   49.1710   14.2210 O.3   2003  POP2003     0.0000
     15  O3        14.3000   48.1600   14.0810 O.3   2003  POP2003     0.0000
     16  O         15.6170   48.1890   16.2840 O.2   2003  POP2003     0.0000
     17  P2        16.5960   48.3130   17.5270 P.3   2003  POP2003     0.0000
     18  O4        16.6670   46.9680   18.0760 O.3   2003  POP2003     0.0000
     19  O5        17.8790   48.8130   16.9910 O.3   2003  POP2003     0.0000
     20  O6        15.8870   49.2740   18.4090 O.3   2003  POP2003     0.0000
     21  C2        11.5080   44.4180   17.7110 C.3   2005  TZP2005     0.0000
     22  S1        10.5360   43.9790   18.9960 S.3   2005  TZP2005     0.0000
     23  C5        11.9120   44.0820   20.0500 C.2   2005  TZP2005     0.0000
     24  C4        13.0280   44.4440   19.3670 C.2   2005  TZP2005     0.0000
     25  CM4       14.4120   44.6370   19.9350 C.3   2005  TZP2005     0.0000
     26  C6        11.8300   43.7970   21.5200 C.3   2005  TZP2005     0.0000
     27  C7        11.9100   42.3950   21.9720 C.3   2005  TZP2005     0.0000
     28  O7        11.7820   42.4570   23.4010 O.3   2005  TZP2005     0.0000
     29  P1        10.8380   41.4370   24.1640 P.3   2005  TZP2005     0.0000
     30  O1         9.4860   41.7100   23.6060 O.2   2005  TZP2005     0.0000
     31  O2        11.0400   41.6860   25.5970 O.3   2005  TZP2005     0.0000
     32  O3        11.3710   39.9700   23.8230 O.3   2005  TZP2005     0.0000
@<TRIPOS>BOND
     1     1    19    1
     2     2     3    1
     3     2     4    2
     4     3    12    1
     5     3    11    1
     6     3    10    1
     7     4     5    1
     8     5     7    1
     9     5     6    2
    10     7     8    2
    11     7     9    1
    12    16    17    2
    13    17    19    1
    14    17    18    1
    15    17    20    1
    16    21    22    1
    17    22    23    1
    18    23    24    2
    19    23    26    1
    20    24    25    1
    21    26    27    1
    22    27    28    1
    23    28    29    1
    24    29    30    2
    25    29    32    1
    26    29    31    1
    27    14     1    1
