@<TRIPOS>MOLECULE
3c3y_SAH_1_ligand
   46    48     1     0     0
SMALL
NO_CHARGES


@<TRIPOS>ATOM
     1 N           -4.0350     6.9460    24.5520 N.4          1 SAH464   1.0000
     2 CA          -3.1500     7.8060    25.4190 C.3          1 SAH464   0.0000
     3 CB          -2.0400     6.9760    26.0510 C.3          1 SAH464   0.0000
     4 CG          -2.4930     6.0780    27.2110 C.3          1 SAH464   0.0000
     5 SD          -1.0250     5.5870    28.1610 S.3          1 SAH464   0.0000
     6 C           -2.5760     8.9920    24.6570 C.2          1 SAH464   0.0000
     7 O           -1.9570     9.8390    25.2970 O.co2        1 SAH464   0.0000
     8 OXT         -2.7400     9.1610    23.4440 O.co2        1 SAH464  -1.0000
     9 C5'         -1.7410     4.3590    29.2760 C.3          1 SAH464   0.0000
    10 C4'         -2.7570     4.9250    30.2560 C.3          1 SAH464   0.0000
    11 O4'         -3.3670     3.8200    30.9040 O.3          1 SAH464   0.0000
    12 C3'         -2.1550     5.7790    31.3770 C.3          1 SAH464   0.0000
    13 O3'         -2.6900     7.0820    31.3550 O.3          1 SAH464   0.0000
    14 C2'         -2.5510     5.0490    32.6560 C.3          1 SAH464   0.0000
    15 O2'         -2.8850     5.8900    33.7380 O.3          1 SAH464   0.0000
    16 C1'         -3.7480     4.2240    32.2040 C.3          1 SAH464   0.0000
    17 N9          -3.9390     3.0110    32.9890 N.pl3        1 SAH464   0.0000
    18 C8          -3.0120     2.0360    33.2190 C.2          1 SAH464   0.0000
    19 N7          -3.5840     1.0520    33.9490 N.2          1 SAH464   0.0000
    20 C5          -4.8880     1.3910    34.1610 C.ar         1 SAH464   0.0000
    21 C6          -5.9290     0.7680    34.8340 C.ar         1 SAH464   0.0000
    22 N6          -5.7460    -0.4130    35.4370 N.pl3        1 SAH464   0.0000
    23 N1          -7.1570     1.3900    34.8710 N.ar         1 SAH464   0.0000
    24 C2          -7.3530     2.6160    34.2550 C.ar         1 SAH464   0.0000
    25 N3          -6.3190     3.2350    33.5900 N.ar         1 SAH464   0.0000
    26 C4          -5.1200     2.6170    33.5550 C.ar         1 SAH464   0.0000
    27 H1          -4.7852     6.5790    25.1020 H            1 SAH464   0.0000
    28 H2          -4.4077     7.4974    23.8056 H            1 SAH464   0.0000
    29 HA          -3.7148     8.1686    26.1603 H            1 SAH464   0.0000
    30 HB1         -1.3407     7.6020    26.3962 H            1 SAH464   0.0000
    31 HB2         -1.6444     6.3928    25.3415 H            1 SAH464   0.0000
    32 HG1         -2.9497     5.2648    26.8504 H            1 SAH464   0.0000
    33 HG2         -3.1246     6.5810    27.8010 H            1 SAH464   0.0000
    34 H5'1        -0.9991     3.9406    29.7999 H            1 SAH464   0.0000
    35 H5'2        -2.1942     3.6597    28.7232 H            1 SAH464   0.0000
    36 H4'         -3.4481     5.4522    29.7616 H            1 SAH464   0.0000
    37 H3'         -1.1593     5.8118    31.2909 H            1 SAH464   0.0000
    38 H12         -3.6811     7.0376    31.4803 H            1 SAH464   0.0000
    39 H2'         -1.8104     4.4354    32.9299 H            1 SAH464   0.0000
    40 H14         -3.6607     6.4677    33.4840 H            1 SAH464   0.0000
    41 H1'         -4.5813     4.7764    32.1821 H            1 SAH464   0.0000
    42 H16         -2.0644     2.0475    32.8997 H            1 SAH464   0.0000
    43 H17         -6.5048    -0.8513    35.9187 H            1 SAH464   0.0000
    44 H18         -4.8505    -0.8569    35.4057 H            1 SAH464   0.0000
    45 H19         -8.2513     3.0536    34.2939 H            1 SAH464   0.0000
    46 H20         -3.4990     6.1914    24.1735 H            1 SAH464   0.0000
@<TRIPOS>BOND
     1    1    2       1
     2    2    3       1
     3    2    6       1
     4    3    4       1
     5    4    5       1
     6    5    9       1
     7    6    7      ar
     8    6    8      ar
     9    9   10       1
    10   10   11       1
    11   10   12       1
    12   11   16       1
    13   12   13       1
    14   12   14       1
    15   14   15       1
    16   14   16       1
    17   16   17       1
    18   17   18       1
    19   17   26       1
    20   18   19       2
    21   19   20       1
    22   20   21      ar
    23   20   26      ar
    24   21   22       1
    25   21   23      ar
    26   23   24      ar
    27   24   25      ar
    28   25   26      ar
    29    1   27       1
    30    1   28       1
    31    2   29       1
    32    3   30       1
    33    3   31       1
    34    4   32       1
    35    4   33       1
    36    1   46       1
    37    9   34       1
    38    9   35       1
    39   10   36       1
    40   12   37       1
    41   13   38       1
    42   14   39       1
    43   15   40       1
    44   16   41       1
    45   18   42       1
    46   22   43       1
    47   22   44       1
    48   24   45       1
@<TRIPOS>SUBSTRUCTURE
     1 SAH464      1 GROUP             4 A     SAH     0 **** SAH A 464
