@<TRIPOS>MOLECULE
4dy4_FMN_1_ligand
   50    52     1     0     0
SMALL
NO_CHARGES


@<TRIPOS>ATOM
     1 N1          -9.0820    15.1000    -4.8280 N.2          1 FMN201   0.0000
     2 C2          -8.1290    14.4220    -5.5130 C.2          1 FMN201   0.0000
     3 O2          -8.2170    14.2330    -6.7410 O.2          1 FMN201   0.0000
     4 N3          -7.0440    13.8910    -4.8410 N.pl3        1 FMN201   0.0000
     5 C4          -6.8110    14.1550    -3.4940 C.2          1 FMN201   0.0000
     6 O4          -5.8420    13.6280    -2.9330 O.2          1 FMN201   0.0000
     7 C4A         -7.7230    14.9770    -2.8410 C.2          1 FMN201   0.0000
     8 N5          -7.4950    15.3710    -1.5470 N.2          1 FMN201   0.0000
     9 C5A         -8.3960    16.1720    -0.8980 C.ar         1 FMN201   0.0000
    10 C6          -8.0880    16.6630     0.3540 C.ar         1 FMN201   0.0000
    11 C7          -9.0230    17.3830     1.0900 C.ar         1 FMN201   0.0000
    12 C7M         -8.6550    17.9090     2.4520 C.3          1 FMN201   0.0000
    13 C8         -10.2780    17.6640     0.5260 C.ar         1 FMN201   0.0000
    14 C8M        -11.3400    18.4350     1.2760 C.3          1 FMN201   0.0000
    15 C9         -10.5600    17.2200    -0.7620 C.ar         1 FMN201   0.0000
    16 C9A         -9.6230    16.4840    -1.5000 C.ar         1 FMN201   0.0000
    17 N10         -9.8690    16.0240    -2.7970 N.pl3        1 FMN201   0.0000
    18 C10         -8.8940    15.3670    -3.5000 C.2          1 FMN201   0.0000
    19 C1'        -11.2060    16.1940    -3.4400 C.3          1 FMN201   0.0000
    20 C2'        -12.1230    15.1810    -2.7700 C.3          1 FMN201   0.0000
    21 O2'        -11.6950    13.8540    -3.1020 O.3          1 FMN201   0.0000
    22 C3'        -13.5510    15.4920    -3.2070 C.3          1 FMN201   0.0000
    23 O3'        -13.9800    16.6520    -2.4940 O.3          1 FMN201   0.0000
    24 C4'        -14.4510    14.3090    -2.9310 C.3          1 FMN201   0.0000
    25 O4'        -14.1500    13.2480    -3.8000 O.3          1 FMN201   0.0000
    26 C5'        -15.9180    14.5720    -3.0990 C.3          1 FMN201   0.0000
    27 O5'        -16.5870    13.4950    -2.4470 O.3          1 FMN201   0.0000
    28 P          -17.8310    13.9080    -1.5230 P.3          1 FMN201   0.0000
    29 O1P        -18.7360    14.8260    -2.3190 O.co2        1 FMN201   0.0000
    30 O2P        -17.3140    14.6020    -0.2850 O.co2        1 FMN201  -1.0000
    31 O3P        -18.5080    12.5890    -1.2500 O.co2        1 FMN201  -1.0000
    32 H1          -6.4078    13.2999    -5.3369 H            1 FMN201   0.0000
    33 H2          -7.1793    16.4988     0.7378 H            1 FMN201   0.0000
    34 H7M1        -9.4345    18.3995     2.8417 H            1 FMN201   0.0000
    35 H7M2        -8.4094    17.1453     3.0491 H            1 FMN201   0.0000
    36 H7M3        -7.8767    18.5315     2.3698 H            1 FMN201   0.0000
    37 H8M1       -12.1535    18.5265     0.7017 H            1 FMN201   0.0000
    38 H8M2       -11.5775    17.9453     2.1149 H            1 FMN201   0.0000
    39 H8M3       -10.9915    19.3433     1.5075 H            1 FMN201   0.0000
    40 H9         -11.4488    17.4302    -1.1693 H            1 FMN201   0.0000
    41 H1'1       -11.1455    16.0126    -4.4215 H            1 FMN201   0.0000
    42 H1'2       -11.5471    17.1225    -3.2931 H            1 FMN201   0.0000
    43 H2'        -12.0593    15.2987    -1.7790 H            1 FMN201   0.0000
    44 H13        -11.0334    13.5373    -2.4223 H            1 FMN201   0.0000
    45 H3'        -13.5586    15.6882    -4.1875 H            1 FMN201   0.0000
    46 H15        -14.6386    17.1599    -3.0492 H            1 FMN201   0.0000
    47 H4'        -14.2909    14.0031    -1.9925 H            1 FMN201   0.0000
    48 H17        -13.1808    13.2815    -4.0438 H            1 FMN201   0.0000
    49 H5'1       -16.1583    14.5938    -4.0695 H            1 FMN201   0.0000
    50 H5'2       -16.1658    15.4429    -2.6746 H            1 FMN201   0.0000
@<TRIPOS>BOND
     1    1    2       1
     2    1   18       2
     3    2    3       2
     4    2    4       1
     5    4    5       1
     6    5    6       2
     7    5    7       1
     8    7    8       2
     9    7   18       1
    10    8    9       1
    11    9   10      ar
    12    9   16      ar
    13   10   11      ar
    14   11   12       1
    15   11   13      ar
    16   13   14       1
    17   13   15      ar
    18   15   16      ar
    19   16   17       1
    20   17   18       1
    21   17   19       1
    22   19   20       1
    23   20   21       1
    24   20   22       1
    25   22   23       1
    26   22   24       1
    27   24   25       1
    28   24   26       1
    29   26   27       1
    30   27   28       1
    31   28   29      ar
    32   28   30      ar
    33   28   31      ar
    34    4   32       1
    35   10   33       1
    36   12   34       1
    37   12   35       1
    38   12   36       1
    39   14   37       1
    40   14   38       1
    41   14   39       1
    42   15   40       1
    43   19   41       1
    44   19   42       1
    45   20   43       1
    46   21   44       1
    47   22   45       1
    48   23   46       1
    49   24   47       1
    50   25   48       1
    51   26   49       1
    52   26   50       1
@<TRIPOS>SUBSTRUCTURE
     1 FMN201      1 GROUP             4 A     FMN     0 **** FMN A 201
