@<TRIPOS>MOLECULE
3nbf_8OD_1_ligand
   40    42     1     0     0
SMALL
NO_CHARGES


@<TRIPOS>ATOM
     1 N1         -40.8970   -10.6640   -15.6530 N.ar         1 8OD500   0.0000
     2 C2         -42.1440   -10.9340   -16.0950 C.ar         1 8OD500   0.0000
     3 N3         -42.9280   -10.0960   -16.7800 N.ar         1 8OD500   0.0000
     4 C4         -42.3820    -8.9000   -17.0340 C.ar         1 8OD500   0.0000
     5 C5         -41.1220    -8.5450   -16.6190 C.ar         1 8OD500   0.0000
     6 C6         -40.3560    -9.4650   -15.9040 C.ar         1 8OD500   0.0000
     7 N6         -39.0680    -9.1640   -15.4640 N.pl3        1 8OD500   0.0000
     8 N7         -40.8300    -7.2110   -17.0500 N.pl3        1 8OD500   0.0000
     9 C8         -41.9860    -6.7700   -17.7470 C.2          1 8OD500   0.0000
    10 O8         -42.1510    -5.6640   -18.2730 O.2          1 8OD500   0.0000
    11 N9         -42.9640    -7.8010   -17.7290 N.pl3        1 8OD500   0.0000
    12 PA         -44.4130    -9.8810   -23.9010 P.3          1 8OD500   0.0000
    13 PB         -41.5590   -10.6350   -24.4310 P.3          1 8OD500   0.0000
    14 C1'        -44.2990    -7.8060   -18.3730 C.3          1 8OD500   0.0000
    15 O1A        -45.3460    -8.9260   -24.6330 O.co2        1 8OD500   0.0000
    16 O1B        -41.8950   -12.1150   -24.1480 O.co2        1 8OD500   0.0000
    17 C2'        -44.8850    -6.4130   -18.6460 C.3          1 8OD500   0.0000
    18 O2'        -46.2060    -6.3410   -18.1160 O.3          1 8OD500   0.0000
    19 O2A        -44.9260   -11.3090   -23.7120 O.co2        1 8OD500  -1.0000
    20 O2B        -40.6650   -10.4000   -25.6710 O.co2        1 8OD500  -1.0000
    21 C3'        -44.9130    -6.3210   -20.1850 C.3          1 8OD500   0.0000
    22 O3'        -46.0560    -5.6300   -20.7000 O.3          1 8OD500   0.0000
    23 O3A        -43.0000    -9.8900   -24.7710 O.3          1 8OD500   0.0000
    24 O3B        -40.9710    -9.9520   -23.1680 O.co2        1 8OD500  -1.0000
    25 C4'        -44.8460    -7.7710   -20.6690 C.3          1 8OD500   0.0000
    26 O4'        -44.0980    -8.4330   -19.6530 O.3          1 8OD500   0.0000
    27 C5'        -44.1200    -7.8900   -22.0200 C.3          1 8OD500   0.0000
    28 O5'        -43.9750    -9.2560   -22.4420 O.3          1 8OD500   0.0000
    29 H1         -42.5134   -11.8408   -15.8919 H            1 8OD500   0.0000
    30 H2         -38.6712    -8.2663   -15.6555 H            1 8OD500   0.0000
    31 H3         -38.5408    -9.8458   -14.9568 H            1 8OD500   0.0000
    32 H4         -39.9869    -6.6967   -16.8928 H            1 8OD500   0.0000
    33 H1'        -44.9398    -8.3446   -17.8260 H            1 8OD500   0.0000
    34 H2'        -44.3042    -5.6985   -18.2560 H            1 8OD500   0.0000
    35 H7         -46.1686    -6.0175   -17.1705 H            1 8OD500   0.0000
    36 H3'        -44.0885    -5.8448   -20.4907 H            1 8OD500   0.0000
    37 H9         -46.0100    -5.6077   -21.6987 H            1 8OD500   0.0000
    38 H4'        -45.7654    -8.1592   -20.7328 H            1 8OD500   0.0000
    39 H5'1       -43.2112    -7.4817   -21.9339 H            1 8OD500   0.0000
    40 H5'2       -44.6443    -7.3935   -22.7118 H            1 8OD500   0.0000
@<TRIPOS>BOND
     1    1    2      ar
     2    1    6      ar
     3    2    3      ar
     4    3    4      ar
     5    4    5      ar
     6    4   11       1
     7    5    6      ar
     8    5    8       1
     9    6    7       1
    10    8    9       1
    11    9   10       2
    12    9   11       1
    13   11   14       1
    14   12   15      ar
    15   12   19      ar
    16   12   23       1
    17   12   28       1
    18   13   16      ar
    19   13   20      ar
    20   13   23       1
    21   13   24      ar
    22   14   17       1
    23   14   26       1
    24   17   18       1
    25   17   21       1
    26   21   22       1
    27   21   25       1
    28   25   26       1
    29   25   27       1
    30   27   28       1
    31    2   29       1
    32    7   30       1
    33    7   31       1
    34    8   32       1
    35   14   33       1
    36   27   40       1
    37   27   39       1
    38   17   34       1
    39   18   35       1
    40   25   38       1
    41   21   36       1
    42   22   37       1
@<TRIPOS>SUBSTRUCTURE
     1 8OD500      1 GROUP             4 A     8OD     0 **** 8OD A 500
