@<TRIPOS>MOLECULE
1mlv_SAH_2_ligand
   46    48     1     0     0
SMALL
NO_CHARGES


@<TRIPOS>ATOM
     1 N           97.5840    43.3600    92.0900 N.4          1 SAH701   1.0000
     2 CA          96.5600    43.2160    93.1190 C.3          1 SAH701   0.0000
     3 CB          95.1650    43.1610    92.4680 C.3          1 SAH701   0.0000
     4 CG          94.5360    44.5040    92.2700 C.3          1 SAH701   0.0000
     5 SD          93.8710    45.3050    93.7720 S.3          1 SAH701   0.0000
     6 C           96.8550    41.9650    93.9770 C.2          1 SAH701   0.0000
     7 O           95.9430    41.4000    94.5920 O.co2        1 SAH701   0.0000
     8 OXT         98.0160    41.5460    94.0430 O.co2        1 SAH701  -1.0000
     9 C5'         94.6810    46.8780    93.6470 C.3          1 SAH701   0.0000
    10 C4'         96.0970    46.8510    94.1380 C.3          1 SAH701   0.0000
    11 O4'         96.9550    46.3190    93.1000 O.3          1 SAH701   0.0000
    12 C3'         96.6860    48.2080    94.4470 C.3          1 SAH701   0.0000
    13 O3'         96.3160    48.6830    95.7560 O.3          1 SAH701   0.0000
    14 C2'         98.1660    47.9550    94.2890 C.3          1 SAH701   0.0000
    15 O2'         98.8330    47.4510    95.4250 O.3          1 SAH701   0.0000
    16 C1'         98.1690    47.0300    93.0710 C.3          1 SAH701   0.0000
    17 N9          98.3020    47.7190    91.7760 N.pl3        1 SAH701   0.0000
    18 C8          97.3970    47.8410    90.7500 C.2          1 SAH701   0.0000
    19 N7          97.8380    48.5290    89.7240 N.2          1 SAH701   0.0000
    20 C5          99.1310    48.8920    90.0870 C.ar         1 SAH701   0.0000
    21 C6         100.1700    49.6530    89.4400 C.ar         1 SAH701   0.0000
    22 N6         100.0570    50.2010    88.2240 N.pl3        1 SAH701   0.0000
    23 N1         101.3600    49.8240    90.1060 N.ar         1 SAH701   0.0000
    24 C2         101.5170    49.2860    91.3430 C.ar         1 SAH701   0.0000
    25 N3         100.6160    48.5590    92.0510 N.ar         1 SAH701   0.0000
    26 C4          99.4310    48.4010    91.3620 C.ar         1 SAH701   0.0000
    27 H1          98.4861    43.3949    92.5201 H            1 SAH701   0.0000
    28 H2          97.5420    42.5794    91.4664 H            1 SAH701   0.0000
    29 HA          96.5973    44.0195    93.7131 H            1 SAH701   0.0000
    30 HB1         94.5654    42.6156    93.0536 H            1 SAH701   0.0000
    31 HB2         95.2512    42.7188    91.5752 H            1 SAH701   0.0000
    32 HG1         93.7826    44.3966    91.6212 H            1 SAH701   0.0000
    33 HG2         95.2278    45.1116    91.8798 H            1 SAH701   0.0000
    34 H5'1        94.1687    47.5438    94.1895 H            1 SAH701   0.0000
    35 H5'2        94.6822    47.1600    92.6876 H            1 SAH701   0.0000
    36 H4'         96.1568    46.2697    94.9495 H            1 SAH701   0.0000
    37 H3'         96.3854    48.8663    93.7568 H            1 SAH701   0.0000
    38 H12         96.1812    47.9035    96.3677 H            1 SAH701   0.0000
    39 H2'         98.6029    48.8157    94.0276 H            1 SAH701   0.0000
    40 H14         98.8097    46.4514    95.4090 H            1 SAH701   0.0000
    41 H1'         98.9226    46.3795    93.1657 H            1 SAH701   0.0000
    42 H16         96.4814    47.4401    90.7824 H            1 SAH701   0.0000
    43 H17        100.8201    50.7174    87.8354 H            1 SAH701   0.0000
    44 H18         99.2095    50.0940    87.7041 H            1 SAH701   0.0000
    45 H19        102.4004    49.4442    91.7840 H            1 SAH701   0.0000
    46 H20         97.4258    44.2044    91.5782 H            1 SAH701   0.0000
@<TRIPOS>BOND
     1    1    2       1
     2    2    3       1
     3    2    6       1
     4    3    4       1
     5    4    5       1
     6    5    9       1
     7    6    7      ar
     8    6    8      ar
     9    9   10       1
    10   10   11       1
    11   10   12       1
    12   11   16       1
    13   12   13       1
    14   12   14       1
    15   14   15       1
    16   14   16       1
    17   16   17       1
    18   17   18       1
    19   17   26       1
    20   18   19       2
    21   19   20       1
    22   20   21      ar
    23   20   26      ar
    24   21   22       1
    25   21   23      ar
    26   23   24      ar
    27   24   25      ar
    28   25   26      ar
    29    1   27       1
    30    1   28       1
    31    2   29       1
    32    3   30       1
    33    3   31       1
    34    4   32       1
    35    4   33       1
    36    1   46       1
    37    9   34       1
    38    9   35       1
    39   10   36       1
    40   12   37       1
    41   13   38       1
    42   14   39       1
    43   15   40       1
    44   16   41       1
    45   18   42       1
    46   22   43       1
    47   22   44       1
    48   24   45       1
@<TRIPOS>SUBSTRUCTURE
     1 SAH701      1 GROUP             4 B     SAH     0 **** SAH B 701
