@<TRIPOS>MOLECULE
1wur_8DG_4_ligand
   43    45     1     0     0
SMALL
NO_CHARGES


@<TRIPOS>ATOM
     1 PG          10.4130    31.3470    11.2590 P.3          1 8DG823   0.0000
     2 O1G         11.0260    30.4010    12.2540 O.co2        1 8DG823   0.0000
     3 O2G          9.2290    30.7810    10.5240 O.co2        1 8DG823  -1.0000
     4 O3G         11.4800    31.7800    10.2540 O.co2        1 8DG823  -1.0000
     5 O3B          9.8810    32.6100    12.0800 O.3          1 8DG823   0.0000
     6 PB           9.8360    34.1500    11.6150 P.3          1 8DG823   0.0000
     7 O1B          9.2110    34.2580    10.2840 O.co2        1 8DG823   0.0000
     8 O2B         11.1920    34.7330    11.6550 O.co2        1 8DG823  -1.0000
     9 O3A          8.8830    34.8430    12.6860 O.3          1 8DG823   0.0000
    10 PA           8.6930    34.7440    14.2920 P.3          1 8DG823   0.0000
    11 O1A          7.8720    35.9120    14.7280 O.co2        1 8DG823   0.0000
    12 O2A         10.0460    34.6470    14.9040 O.co2        1 8DG823  -1.0000
    13 O5'          7.8870    33.3780    14.4260 O.3          1 8DG823   0.0000
    14 C5'          6.4890    33.2440    14.1290 C.3          1 8DG823   0.0000
    15 C4'          6.0730    31.8390    14.4950 C.3          1 8DG823   0.0000
    16 O4'          4.6630    31.5810    14.2590 O.3          1 8DG823   0.0000
    17 C3'          6.8140    30.7310    13.7150 C.3          1 8DG823   0.0000
    18 O3'          7.7660    30.0830    14.5540 O.3          1 8DG823   0.0000
    19 C2'          5.7210    29.8090    13.2340 C.3          1 8DG823   0.0000
    20 C1'          4.5850    30.1720    14.1360 C.3          1 8DG823   0.0000
    21 N9           3.2430    29.8030    13.6590 N.pl3        1 8DG823   0.0000
    22 C8           2.6880    30.0130    12.4060 C.2          1 8DG823   0.0000
    23 N7           1.4650    29.5480    12.3020 N.pl3        1 8DG823   0.0000
    24 C5           1.1990    29.0040    13.5570 C.2          1 8DG823   0.0000
    25 C6           0.0390    28.3450    14.0660 C.2          1 8DG823   0.0000
    26 O6          -1.0340    28.0900    13.5060 O.2          1 8DG823   0.0000
    27 N1           0.2070    27.9540    15.4040 N.2          1 8DG823   0.0000
    28 C2           1.3590    28.1770    16.1430 C.2          1 8DG823   0.0000
    29 N2           1.3370    27.7360    17.4050 N.pl3        1 8DG823   0.0000
    30 N3           2.4320    28.7790    15.6780 N.pl3        1 8DG823  -1.0000
    31 C4           2.2900    29.1670    14.3860 C.2          1 8DG823   0.0000
    32 O8           3.3350    30.5810    11.5190 O.2          1 8DG823   0.0000
    33 H5'1         6.3314    33.4026    13.1543 H            1 8DG823   0.0000
    34 H5'2         5.9626    33.9050    14.6637 H            1 8DG823   0.0000
    35 H4'          6.2537    31.7060    15.4695 H            1 8DG823   0.0000
    36 H3'          7.2819    31.1329    12.9279 H            1 8DG823   0.0000
    37 H5           8.2366    29.3694    14.0350 H            1 8DG823   0.0000
    38 H2'1         5.9804    28.8496    13.3451 H            1 8DG823   0.0000
    39 H2'2         5.4940    29.9841    12.2760 H            1 8DG823   0.0000
    40 H1'          4.7368    29.7579    15.0335 H            1 8DG823   0.0000
    41 H9           0.8621    29.5774    11.5047 H            1 8DG823   0.0000
    42 H10          2.1352    27.8644    17.9935 H            1 8DG823   0.0000
    43 H11          0.5223    27.2778    17.7604 H            1 8DG823   0.0000
@<TRIPOS>BOND
     1    1    2      ar
     2    1    3      ar
     3    1    4      ar
     4    1    5       1
     5    5    6       1
     6    6    7      ar
     7    6    8      ar
     8    6    9       1
     9    9   10       1
    10   10   11      ar
    11   10   12      ar
    12   10   13       1
    13   13   14       1
    14   14   15       1
    15   15   16       1
    16   15   17       1
    17   16   20       1
    18   17   18       1
    19   17   19       1
    20   19   20       1
    21   20   21       1
    22   21   22       1
    23   21   31       1
    24   22   23       1
    25   22   32       2
    26   23   24       1
    27   24   25       1
    28   24   31       2
    29   25   26       2
    30   25   27       1
    31   27   28       2
    32   28   29       1
    33   28   30       1
    34   30   31       1
    35   29   43       1
    36   29   42       1
    37   20   40       1
    38   23   41       1
    39   14   33       1
    40   14   34       1
    41   15   35       1
    42   17   36       1
    43   18   37       1
    44   19   38       1
    45   19   39       1
@<TRIPOS>SUBSTRUCTURE
     1 8DG823      1 GROUP             4 D     8DG     0 **** 8DG D 823
