@<TRIPOS>MOLECULE
2r6h_FAD_3_ligand
   84    89     1     0     0
SMALL
NO_CHARGES


@<TRIPOS>ATOM
     1 PA         112.3650    23.0300   150.1610 P.3          1 FAD413   0.0000
     2 O1A        112.0870    24.5140   150.3400 O.co2        1 FAD413   0.0000
     3 O2A        113.7920    22.6260   150.5220 O.co2        1 FAD413  -1.0000
     4 O5B        112.0630    22.6160   148.6220 O.3          1 FAD413   0.0000
     5 C5B        110.8810    23.0400   147.9760 C.3          1 FAD413   0.0000
     6 C4B        110.5170    22.0630   146.8600 C.3          1 FAD413   0.0000
     7 O4B        111.3110    22.2890   145.7080 O.3          1 FAD413   0.0000
     8 C3B        110.7760    20.6160   147.2650 C.3          1 FAD413   0.0000
     9 O3B        109.7680    19.8150   146.6860 O.3          1 FAD413   0.0000
    10 C2B        112.1190    20.2950   146.6440 C.3          1 FAD413   0.0000
    11 O2B        112.2610    18.9320   146.3390 O.3          1 FAD413   0.0000
    12 C1B        112.0270    21.1050   145.3690 C.3          1 FAD413   0.0000
    13 N9A        113.3510    21.4630   144.8450 N.pl3        1 FAD413   0.0000
    14 C8A        114.5350    21.6080   145.5350 C.2          1 FAD413   0.0000
    15 N7A        115.4920    21.9680   144.6350 N.2          1 FAD413   0.0000
    16 C5A        114.9280    22.0570   143.3900 C.ar         1 FAD413   0.0000
    17 C6A        115.4310    22.3780   142.1160 C.ar         1 FAD413   0.0000
    18 N6A        116.7560    22.4580   141.9090 N.pl3        1 FAD413   0.0000
    19 N1A        114.5580    22.3750   141.0250 N.ar         1 FAD413   0.0000
    20 C2A        113.2170    22.0590   141.1780 C.ar         1 FAD413   0.0000
    21 N3A        112.7260    21.7350   142.4310 N.ar         1 FAD413   0.0000
    22 C4A        113.5690    21.7380   143.5140 C.ar         1 FAD413   0.0000
    23 N1         103.9710    23.7100   154.9570 N.2          1 FAD413   0.0000
    24 C2         103.3390    22.6330   155.5200 C.2          1 FAD413   0.0000
    25 O2         103.5890    21.5270   155.0610 O.2          1 FAD413   0.0000
    26 N3         102.4560    22.8020   156.5730 N.pl3        1 FAD413   0.0000
    27 C4         102.1930    24.0650   157.0810 C.2          1 FAD413   0.0000
    28 O4         101.4180    24.2120   158.0370 O.2          1 FAD413   0.0000
    29 C4X        102.8400    25.1600   156.4980 C.2          1 FAD413   0.0000
    30 N5         102.6170    26.4430   156.9570 N.2          1 FAD413   0.0000
    31 C5X        103.2600    27.5120   156.3660 C.ar         1 FAD413   0.0000
    32 C6         103.0180    28.7950   156.8510 C.ar         1 FAD413   0.0000
    33 C7         103.6670    29.8820   156.2650 C.ar         1 FAD413   0.0000
    34 C7M        103.4050    31.2720   156.7720 C.3          1 FAD413   0.0000
    35 C8         104.5560    29.6670   155.2040 C.ar         1 FAD413   0.0000
    36 C8M        105.2370    30.8350   154.5720 C.3          1 FAD413   0.0000
    37 C9         104.7970    28.3880   154.7160 C.ar         1 FAD413   0.0000
    38 C9A        104.1450    27.3130   155.3060 C.ar         1 FAD413   0.0000
    39 N10        104.3740    26.0320   154.8520 N.pl3        1 FAD413   0.0000
    40 C10        103.7260    24.9700   155.4400 C.2          1 FAD413   0.0000
    41 C1'        105.4880    25.7360   153.8880 C.3          1 FAD413   0.0000
    42 C2'        106.7410    25.3330   154.6530 C.3          1 FAD413   0.0000
    43 O2'        107.2520    26.4810   155.2820 O.3          1 FAD413   0.0000
    44 C3'        107.8150    24.7410   153.7320 C.3          1 FAD413   0.0000
    45 O3'        108.0830    25.6240   152.6610 O.3          1 FAD413   0.0000
    46 C4'        107.4480    23.3600   153.1730 C.3          1 FAD413   0.0000
    47 O4'        107.3670    22.4390   154.2450 O.3          1 FAD413   0.0000
    48 C5'        108.4770    22.8790   152.1470 C.3          1 FAD413   0.0000
    49 O5'        109.7510    23.2430   152.6350 O.3          1 FAD413   0.0000
    50 P          111.0180    22.2580   152.5650 P.3          1 FAD413   0.0000
    51 O1P        112.2110    22.8510   153.2710 O.co2        1 FAD413   0.0000
    52 O2P        110.7010    20.8980   153.1310 O.co2        1 FAD413  -1.0000
    53 O3P        111.2280    22.1990   150.9730 O.3          1 FAD413   0.0000
    54 H5B1       111.0246    23.9496   147.5861 H            1 FAD413   0.0000
    55 H5B2       110.1349    23.0763   148.6409 H            1 FAD413   0.0000
    56 H4B        109.5515    22.1736   146.6242 H            1 FAD413   0.0000
    57 H3B        110.7989    20.5130   148.2594 H            1 FAD413   0.0000
    58 H5         109.9165    18.8587   146.9378 H            1 FAD413   0.0000
    59 H2B        112.8696    20.6156   147.2218 H            1 FAD413   0.0000
    60 H7         113.2248    18.6740   146.4065 H            1 FAD413   0.0000
    61 H1B        111.5191    20.5900   144.6784 H            1 FAD413   0.0000
    62 H8A        114.6674    21.4735   146.5170 H            1 FAD413   0.0000
    63 H6A1       117.1073    22.6866   141.0011 H            1 FAD413   0.0000
    64 H6A2       117.3909    22.2889   142.6628 H            1 FAD413   0.0000
    65 H2A        112.6065    22.0651   140.3860 H            1 FAD413   0.0000
    66 H13        102.0030    22.0045   156.9715 H            1 FAD413   0.0000
    67 H14        102.3849    28.9357   157.6122 H            1 FAD413   0.0000
    68 H7M1       103.9470    31.9267   156.2451 H            1 FAD413   0.0000
    69 H7M2       102.4334    31.4860   156.6710 H            1 FAD413   0.0000
    70 H7M3       103.6602    31.3284   157.7372 H            1 FAD413   0.0000
    71 H8M1       105.8336    30.5149   153.8361 H            1 FAD413   0.0000
    72 H8M2       104.5507    31.4584   154.1974 H            1 FAD413   0.0000
    73 H8M3       105.7830    31.3144   155.2591 H            1 FAD413   0.0000
    74 H21        105.4284    28.2445   153.9539 H            1 FAD413   0.0000
    75 H1'1       105.6803    26.5519   153.3427 H            1 FAD413   0.0000
    76 H1'2       105.2136    24.9882   153.2835 H            1 FAD413   0.0000
    77 H2'        106.4975    24.6580   155.3495 H            1 FAD413   0.0000
    78 H25        106.8490    26.5693   156.1929 H            1 FAD413   0.0000
    79 H3'        108.6552    24.6422   154.2652 H            1 FAD413   0.0000
    80 H27        108.7840    25.2266   152.0688 H            1 FAD413   0.0000
    81 H4'        106.5535    23.4187   152.7297 H            1 FAD413   0.0000
    82 H29        106.6999    21.7277   154.0236 H            1 FAD413   0.0000
    83 H5'1       108.3104    23.3162   151.2632 H            1 FAD413   0.0000
    84 H5'2       108.4201    21.8860   152.0437 H            1 FAD413   0.0000
@<TRIPOS>BOND
     1    1    2      ar
     2    1    3      ar
     3    1    4       1
     4    1   53       1
     5    4    5       1
     6    5    6       1
     7    6    7       1
     8    6    8       1
     9    7   12       1
    10    8    9       1
    11    8   10       1
    12   10   11       1
    13   10   12       1
    14   12   13       1
    15   13   14       1
    16   13   22       1
    17   14   15       2
    18   15   16       1
    19   16   17      ar
    20   16   22      ar
    21   17   18       1
    22   17   19      ar
    23   19   20      ar
    24   20   21      ar
    25   21   22      ar
    26   23   24       1
    27   23   40       2
    28   24   25       2
    29   24   26       1
    30   26   27       1
    31   27   28       2
    32   27   29       1
    33   29   30       2
    34   29   40       1
    35   30   31       1
    36   31   32      ar
    37   31   38      ar
    38   32   33      ar
    39   33   34       1
    40   33   35      ar
    41   35   36       1
    42   35   37      ar
    43   37   38      ar
    44   38   39       1
    45   39   40       1
    46   39   41       1
    47   41   42       1
    48   42   43       1
    49   42   44       1
    50   44   45       1
    51   44   46       1
    52   46   47       1
    53   46   48       1
    54   48   49       1
    55   49   50       1
    56   50   51      ar
    57   50   52      ar
    58   50   53       1
    59   48   84       1
    60    5   54       1
    61    5   55       1
    62    6   56       1
    63    8   57       1
    64    9   58       1
    65   10   59       1
    66   11   60       1
    67   12   61       1
    68   14   62       1
    69   18   63       1
    70   18   64       1
    71   20   65       1
    72   26   66       1
    73   32   67       1
    74   34   68       1
    75   34   69       1
    76   34   70       1
    77   36   71       1
    78   36   72       1
    79   36   73       1
    80   37   74       1
    81   41   75       1
    82   41   76       1
    83   42   77       1
    84   43   78       1
    85   44   79       1
    86   45   80       1
    87   46   81       1
    88   47   82       1
    89   48   83       1
@<TRIPOS>SUBSTRUCTURE
     1 FAD413      1 GROUP             4 C     FAD     0 **** FAD C 413
