@<TRIPOS>MOLECULE
4ptf_DCP_1_ligand
   40    41     1     0     0
SMALL
NO_CHARGES


@<TRIPOS>ATOM
     1 N1           1.9270    -9.8240    34.6500 N.pl3        1 DCP1201   0.0000
     2 C2           2.9810    -9.0660    34.1300 C.2          1 DCP1201   0.0000
     3 N3           4.2530    -9.5560    34.1240 N.2          1 DCP1201   0.0000
     4 C4           4.5070   -10.7760    34.5620 C.2          1 DCP1201   0.0000
     5 C5           3.4440   -11.6030    35.0770 C.2          1 DCP1201   0.0000
     6 C6           2.1810   -11.0790    35.0840 C.2          1 DCP1201   0.0000
     7 O2           2.7210    -7.9610    33.7160 O.2          1 DCP1201   0.0000
     8 N4           5.8470   -11.2190    34.5100 N.pl3        1 DCP1201   0.0000
     9 C1'          0.5910    -9.2470    34.5980 C.3          1 DCP1201   0.0000
    10 C2'          0.0420    -9.4090    33.1820 C.3          1 DCP1201   0.0000
    11 C3'         -0.5770   -10.7960    33.2290 C.3          1 DCP1201   0.0000
    12 C4'         -1.2410   -10.6200    34.5640 C.3          1 DCP1201   0.0000
    13 O4'         -0.2650   -10.0090    35.3690 O.3          1 DCP1201   0.0000
    14 O3'         -1.5280   -10.9990    32.2300 O.3          1 DCP1201   0.0000
    15 C5'         -1.7090   -12.0140    35.0860 C.3          1 DCP1201   0.0000
    16 O5'         -0.6780   -12.7010    35.5650 O.3          1 DCP1201   0.0000
    17 PA          -0.4970   -14.3990    34.9340 P.3          1 DCP1201   0.0000
    18 O1A         -1.8480   -14.8170    35.3660 O.co2        1 DCP1201   0.0000
    19 O2A          0.6650   -14.7980    35.7730 O.co2        1 DCP1201  -1.0000
    20 O3A         -0.2290   -14.0370    33.4900 O.3          1 DCP1201   0.0000
    21 PB          -1.0830   -14.5990    32.0980 P.3          1 DCP1201   0.0000
    22 O1B         -0.5100   -13.5270    31.2520 O.co2        1 DCP1201   0.0000
    23 O2B         -2.5150   -14.4910    32.4730 O.co2        1 DCP1201  -1.0000
    24 O3B         -0.4670   -15.9700    31.9560 O.3          1 DCP1201   0.0000
    25 PG          -1.2300   -17.5080    31.8350 P.3          1 DCP1201   0.0000
    26 O1G         -1.5400   -17.7290    30.3840 O.co2        1 DCP1201   0.0000
    27 O2G         -0.1590   -18.4210    32.3620 O.co2        1 DCP1201  -1.0000
    28 O3G         -2.4480   -17.4110    32.6990 O.co2        1 DCP1201  -1.0000
    29 H1           3.6239   -12.5262    35.4167 H            1 DCP1201   0.0000
    30 H2           1.4240   -11.6397    35.4195 H            1 DCP1201   0.0000
    31 H3           6.0833   -12.1359    34.8315 H            1 DCP1201   0.0000
    32 H4           6.5595   -10.6157    34.1517 H            1 DCP1201   0.0000
    33 H1'          0.5919    -8.2892    34.8855 H            1 DCP1201   0.0000
    34 H2'1         0.7742    -9.3624    32.5025 H            1 DCP1201   0.0000
    35 H2'2        -0.6461    -8.7124    32.9788 H            1 DCP1201   0.0000
    36 H3'          0.1149   -11.5178    33.2438 H            1 DCP1201   0.0000
    37 H4'         -2.0299   -10.0126    34.4708 H            1 DCP1201   0.0000
    38 H10         -1.2446   -11.7629    31.6503 H            1 DCP1201   0.0000
    39 H5'1        -2.1239   -12.5251    34.3332 H            1 DCP1201   0.0000
    40 H5'2        -2.3839   -11.8839    35.8124 H            1 DCP1201   0.0000
@<TRIPOS>BOND
     1    1    2       1
     2    1    6       1
     3    1    9       1
     4    2    3       1
     5    2    7       2
     6    3    4       2
     7    4    5       1
     8    4    8       1
     9    5    6       2
    10    9   10       1
    11    9   13       1
    12   10   11       1
    13   11   12       1
    14   11   14       1
    15   12   13       1
    16   12   15       1
    17   15   16       1
    18   16   17       1
    19   17   18      ar
    20   17   19      ar
    21   17   20       1
    22   20   21       1
    23   21   22      ar
    24   21   23      ar
    25   21   24       1
    26   24   25       1
    27   25   26      ar
    28   25   27      ar
    29   25   28      ar
    30    5   29       1
    31    6   30       1
    32    8   31       1
    33    8   32       1
    34    9   33       1
    35   10   34       1
    36   10   35       1
    37   11   36       1
    38   12   37       1
    39   14   38       1
    40   15   39       1
    41   15   40       1
@<TRIPOS>SUBSTRUCTURE
     1 DCP1201     1 GROUP             4 A     DCP     0 **** DCP A1201
