@<TRIPOS>MOLECULE
3s5w_NAP_2_ligand
   59    62     1     0     0
SMALL
NO_CHARGES


@<TRIPOS>ATOM
     1 PA          85.8650    18.6610   141.4690 P.3          1 NAP452   0.0000
     2 O1A         87.1100    18.9240   140.7380 O.co2        1 NAP452   0.0000
     3 O2A         86.0430    17.9940   142.7440 O.co2        1 NAP452  -1.0000
     4 O5B         85.0740    20.0350   141.5150 O.3          1 NAP452   0.0000
     5 C5B         84.1910    20.2080   142.5600 C.3          1 NAP452   0.0000
     6 C4B         83.7850    21.6630   142.4560 C.3          1 NAP452   0.0000
     7 O4B         82.7160    21.7720   143.3520 O.3          1 NAP452   0.0000
     8 C3B         84.9120    22.5890   142.9340 C.3          1 NAP452   0.0000
     9 O3B         84.7390    23.8030   142.2150 O.3          1 NAP452   0.0000
    10 C2B         84.5120    22.7690   144.4090 C.3          1 NAP452   0.0000
    11 O2B         84.8890    24.0250   144.8940 O.3          1 NAP452   0.0000
    12 C1B         82.9660    22.7380   144.3390 C.3          1 NAP452   0.0000
    13 N9A         82.4190    22.3600   145.6520 N.pl3        1 NAP452   0.0000
    14 C8A         82.6010    21.1650   146.3160 C.2          1 NAP452   0.0000
    15 N7A         81.9520    21.2100   147.5010 N.2          1 NAP452   0.0000
    16 C5A         81.3860    22.4240   147.6090 C.ar         1 NAP452   0.0000
    17 C6A         80.6300    23.0180   148.6210 C.ar         1 NAP452   0.0000
    18 N6A         80.3730    22.3580   149.7440 N.pl3        1 NAP452   0.0000
    19 N1A         80.1880    24.2950   148.4430 N.ar         1 NAP452   0.0000
    20 C2A         80.4490    25.0100   147.3050 C.ar         1 NAP452   0.0000
    21 N3A         81.2020    24.4270   146.2940 N.ar         1 NAP452   0.0000
    22 C4A         81.6720    23.1650   146.4600 C.ar         1 NAP452   0.0000
    23 O3          84.8030    17.8610   140.5520 O.3          1 NAP452   0.0000
    24 PN          84.4490    17.8680   138.9550 P.3          1 NAP452   0.0000
    25 O1N         83.2400    16.9880   138.8220 O.co2        1 NAP452   0.0000
    26 O2N         84.3720    19.2490   138.3770 O.co2        1 NAP452  -1.0000
    27 O5D         85.7630    17.0730   138.4720 O.3          1 NAP452   0.0000
    28 C5D         86.6370    17.3230   137.3920 C.3          1 NAP452   0.0000
    29 C4D         87.0200    15.8930   137.0270 C.3          1 NAP452   0.0000
    30 O4D         87.2950    15.6480   135.6740 O.3          1 NAP452   0.0000
    31 C3D         88.2250    15.2760   137.7190 C.3          1 NAP452   0.0000
    32 O3D         88.0580    15.2110   139.1150 O.3          1 NAP452   0.0000
    33 C2D         88.2650    13.9280   136.9810 C.3          1 NAP452   0.0000
    34 O2D         87.5530    12.8500   137.5760 O.3          1 NAP452   0.0000
    35 C1D         87.6220    14.2640   135.6290 C.3          1 NAP452   0.0000
    36 P2B         86.1740    24.2720   145.8500 P.3          1 NAP452   0.0000
    37 O1X         85.8430    25.6380   146.4380 O.co2        1 NAP452   0.0000
    38 O2X         87.3420    24.2490   144.8830 O.co2        1 NAP452  -1.0000
    39 O3X         86.2670    23.1460   146.8490 O.co2        1 NAP452  -1.0000
    40 H5B1        84.6364    20.0246   143.4363 H            1 NAP452   0.0000
    41 H5B2        83.3969    19.6088   142.4578 H            1 NAP452   0.0000
    42 H4B         83.5002    21.8923   141.5252 H            1 NAP452   0.0000
    43 H3B         85.8223    22.1911   142.8197 H            1 NAP452   0.0000
    44 H5          85.4490    24.4538   142.4840 H            1 NAP452   0.0000
    45 H2B         84.8699    22.0306   144.9806 H            1 NAP452   0.0000
    46 H1B         82.6106    23.6285   144.0551 H            1 NAP452   0.0000
    47 H8A         83.1297    20.3878   145.9747 H            1 NAP452   0.0000
    48 H6A1        79.8307    22.7897   150.4648 H            1 NAP452   0.0000
    49 H6A2        80.7217    21.4291   149.8690 H            1 NAP452   0.0000
    50 H2A         80.1012    25.9420   147.2028 H            1 NAP452   0.0000
    51 H5D1        87.4321    17.8598   137.6743 H            1 NAP452   0.0000
    52 H5D2        86.1722    17.7870   136.6379 H            1 NAP452   0.0000
    53 H4D         86.2347    15.3210   137.2638 H            1 NAP452   0.0000
    54 H3D         89.0459    15.8041   137.5017 H            1 NAP452   0.0000
    55 H16         88.7806    15.7383   139.5621 H            1 NAP452   0.0000
    56 H2D         89.2168    13.6571   136.8371 H            1 NAP452   0.0000
    57 H18         87.6519    12.0321   137.0093 H            1 NAP452   0.0000
    58 H1D1        88.2661    14.0846   134.8854 H            1 NAP452   0.0000
    59 H1D2        86.7957    13.7174   135.4934 H            1 NAP452   0.0000
@<TRIPOS>BOND
     1    1    2      ar
     2    1    3      ar
     3    1    4       1
     4    1   23       1
     5    4    5       1
     6    5    6       1
     7    6    7       1
     8    6    8       1
     9    7   12       1
    10    8    9       1
    11    8   10       1
    12   10   11       1
    13   10   12       1
    14   11   36       1
    15   12   13       1
    16   13   14       1
    17   13   22       1
    18   14   15       2
    19   15   16       1
    20   16   17      ar
    21   16   22      ar
    22   17   18       1
    23   17   19      ar
    24   19   20      ar
    25   20   21      ar
    26   21   22      ar
    27   23   24       1
    28   24   25      ar
    29   24   26      ar
    30   24   27       1
    31   27   28       1
    32   28   29       1
    33   29   30       1
    34   29   31       1
    35   30   35       1
    36   31   32       1
    37   31   33       1
    38   33   34       1
    39   33   35       1
    40   36   37      ar
    41   36   38      ar
    42   36   39      ar
    43   35   58       1
    44    5   40       1
    45    5   41       1
    46    6   42       1
    47    8   43       1
    48    9   44       1
    49   10   45       1
    50   12   46       1
    51   14   47       1
    52   18   48       1
    53   18   49       1
    54   20   50       1
    55   35   59       1
    56   28   51       1
    57   28   52       1
    58   29   53       1
    59   31   54       1
    60   32   55       1
    61   33   56       1
    62   34   57       1
@<TRIPOS>SUBSTRUCTURE
     1 NAP452      1 GROUP             4 A     NAP     0 **** NAP A 452
