@<TRIPOS>MOLECULE
1t31_OHH_1_ligand
   82    88     1     0     0
SMALL
NO_CHARGES


@<TRIPOS>ATOM
     1 O6          -1.7640    31.3350    23.9320 O.2          1 OHH901   0.0000
     2 P1          -3.3130    41.1690    21.4410 P.3          1 OHH901   0.0000
     3 O1          -2.0860    41.9460    21.1950 O.co2        1 OHH901   0.0000
     4 O3          -4.2890    41.0870    20.2730 O.co2        1 OHH901  -1.0000
     5 O2          -4.3500    41.7230    22.4230 O.co2        1 OHH901  -1.0000
     6 C9          -2.9320    39.5210    21.8550 C.3          1 OHH901   0.0000
     7 O4          -2.9560    39.1160    24.2720 O.2          1 OHH901   0.0000
     8 C10         -2.3520    39.3740    23.2750 C.2          1 OHH901   0.0000
     9 C17          2.3640    40.1760    21.0080 C.ar         1 OHH901   0.0000
    10 C16          3.8200    40.1850    21.1240 C.ar         1 OHH901   0.0000
    11 C15          4.4960    39.8120    22.4010 C.ar         1 OHH901   0.0000
    12 C14          3.7350    39.4290    23.5770 C.ar         1 OHH901   0.0000
    13 C4B          2.2560    39.4040    23.5150 C.ar         1 OHH901   0.0000
    14 C8B          1.5370    39.7920    22.1730 C.ar         1 OHH901   0.0000
    15 C18          0.0900    39.7690    22.1240 C.ar         1 OHH901   0.0000
    16 C11         -0.7500    39.4000    23.2900 C.ar         1 OHH901   0.0000
    17 C12          0.0220    39.0200    24.6090 C.ar         1 OHH901   0.0000
    18 C13          1.4490    39.0360    24.6640 C.ar         1 OHH901   0.0000
    19 O5          -0.7760    39.4550    26.7870 O.2          1 OHH901   0.0000
    20 C19         -0.6960    38.6020    25.9180 C.2          1 OHH901   0.0000
    21 C1          -6.4190    36.6120    21.5790 C.ar         1 OHH901   0.0000
    22 C2          -6.5570    37.8010    22.3720 C.ar         1 OHH901   0.0000
    23 C3          -5.4530    38.7280    22.4620 C.ar         1 OHH901   0.0000
    24 C4          -4.1460    38.5610    21.7900 C.ar         1 OHH901   0.0000
    25 C4A         -3.9600    37.3090    20.9430 C.ar         1 OHH901   0.0000
    26 C8A         -5.1740    36.3100    20.8530 C.ar         1 OHH901   0.0000
    27 C8          -5.0550    35.0740    20.0380 C.ar         1 OHH901   0.0000
    28 C7          -3.8450    34.7600    19.3260 C.ar         1 OHH901   0.0000
    29 C6          -2.6720    35.6700    19.3850 C.ar         1 OHH901   0.0000
    30 C5          -2.7350    36.9050    20.1700 C.ar         1 OHH901   0.0000
    31 N1          -1.2210    37.2420    26.0070 N.am         1 OHH901   0.0000
    32 C20         -1.9190    36.9000    27.3000 C.3          1 OHH901   0.0000
    33 C24         -0.3070    33.8180    24.2730 C.3          1 OHH901   0.0000
    34 N2          -1.6750    33.6690    23.6100 N.am         1 OHH901   0.0000
    35 C23         -2.2300    34.9570    23.1190 C.3          1 OHH901   0.0000
    36 C22         -2.4790    35.9600    24.2500 C.3          1 OHH901   0.0000
    37 C21         -1.1100    36.2310    24.9270 C.3          1 OHH901   0.0000
    38 C25         -0.4050    34.8710    25.4300 C.3          1 OHH901   0.0000
    39 C26         -2.2910    32.3560    23.5110 C.2          1 OHH901   0.0000
    40 C29         -5.1450    31.3170    20.9010 C.ar         1 OHH901   0.0000
    41 C28         -3.8670    31.4490    21.5610 C.ar         1 OHH901   0.0000
    42 C27         -3.6940    32.2360    22.8380 C.ar         1 OHH901   0.0000
    43 C34         -4.9050    32.8850    23.4090 C.ar         1 OHH901   0.0000
    44 C8C         -6.2190    32.7900    22.7900 C.ar         1 OHH901   0.0000
    45 C4C         -6.3570    31.9620    21.4620 C.ar         1 OHH901   0.0000
    46 C30         -7.7030    31.8690    20.8280 C.ar         1 OHH901   0.0000
    47 C31         -8.8580    32.5360    21.4370 C.ar         1 OHH901   0.0000
    48 C32         -8.7270    33.3190    22.6980 C.ar         1 OHH901   0.0000
    49 C33         -7.4320    33.4430    23.3610 C.ar         1 OHH901   0.0000
    50 H1          -2.2451    39.1922    21.2069 H            1 OHH901   0.0000
    51 H2           1.9278    40.4285    20.1443 H            1 OHH901   0.0000
    52 H3           4.3739    40.4459    20.3333 H            1 OHH901   0.0000
    53 H4           5.4948    39.8261    22.4479 H            1 OHH901   0.0000
    54 H5           4.2071    39.1836    24.4237 H            1 OHH901   0.0000
    55 H6          -0.3631    40.0126    21.2665 H            1 OHH901   0.0000
    56 H7           1.9051    38.7866    25.5183 H            1 OHH901   0.0000
    57 H8          -7.1866    35.9739    21.5183 H            1 OHH901   0.0000
    58 H9          -7.4110    37.9859    22.8583 H            1 OHH901   0.0000
    59 H10         -5.5824    39.5462    23.0221 H            1 OHH901   0.0000
    60 H11         -5.8321    34.4471    19.9831 H            1 OHH901   0.0000
    61 H12         -3.7928    33.9202    18.7856 H            1 OHH901   0.0000
    62 H13         -1.8364    35.4384    18.8869 H            1 OHH901   0.0000
    63 H14         -1.9331    37.5021    20.1928 H            1 OHH901   0.0000
    64 H15         -2.2410    35.9539    27.2649 H            1 OHH901   0.0000
    65 H16         -1.2802    37.0066    28.0620 H            1 OHH901   0.0000
    66 H17         -2.6985    37.5128    27.4302 H            1 OHH901   0.0000
    67 H18          0.3608    34.1269    23.5957 H            1 OHH901   0.0000
    68 H19         -0.0191    32.9364    24.6470 H            1 OHH901   0.0000
    69 H20         -3.0970    34.7760    22.6547 H            1 OHH901   0.0000
    70 H21         -1.5825    35.3587    22.4714 H            1 OHH901   0.0000
    71 H22         -3.1204    35.5760    24.9142 H            1 OHH901   0.0000
    72 H23         -2.8526    36.8101    23.8788 H            1 OHH901   0.0000
    73 H24         -0.5141    36.6224    24.2258 H            1 OHH901   0.0000
    74 H25          0.5162    35.0831    25.7562 H            1 OHH901   0.0000
    75 H26         -0.9426    34.4831    26.1787 H            1 OHH901   0.0000
    76 H27         -5.2133    30.7851    20.0569 H            1 OHH901   0.0000
    77 H28         -3.0679    31.0031    21.1577 H            1 OHH901   0.0000
    78 H29         -4.8121    33.4096    24.2553 H            1 OHH901   0.0000
    79 H30         -7.8189    31.3485    19.9821 H            1 OHH901   0.0000
    80 H31         -9.7529    32.4639    20.9966 H            1 OHH901   0.0000
    81 H32         -9.5315    33.7626    23.0929 H            1 OHH901   0.0000
    82 H33         -7.3577    33.9713    24.2068 H            1 OHH901   0.0000
@<TRIPOS>BOND
     1    1   39       2
     2    2    3      ar
     3    2    4      ar
     4    2    5      ar
     5    2    6       1
     6    6    8       1
     7    6   24       1
     8    7    8       2
     9    8   16       1
    10    9   10      ar
    11    9   14      ar
    12   10   11      ar
    13   11   12      ar
    14   12   13      ar
    15   13   14      ar
    16   13   18      ar
    17   14   15      ar
    18   15   16      ar
    19   16   17      ar
    20   17   18      ar
    21   17   20       1
    22   19   20       2
    23   20   31      am
    24   21   22      ar
    25   21   26      ar
    26   22   23      ar
    27   23   24      ar
    28   24   25      ar
    29   25   26      ar
    30   25   30      ar
    31   26   27      ar
    32   27   28      ar
    33   28   29      ar
    34   29   30      ar
    35   31   32       1
    36   31   37       1
    37   33   34       1
    38   33   38       1
    39   34   35       1
    40   34   39      am
    41   35   36       1
    42   36   37       1
    43   37   38       1
    44   39   42       1
    45   40   41      ar
    46   40   45      ar
    47   41   42      ar
    48   42   43      ar
    49   43   44      ar
    50   44   45      ar
    51   44   49      ar
    52   45   46      ar
    53   46   47      ar
    54   47   48      ar
    55   48   49      ar
    56   49   82       1
    57   48   81       1
    58    6   50       1
    59    9   51       1
    60   10   52       1
    61   11   53       1
    62   12   54       1
    63   15   55       1
    64   18   56       1
    65   21   57       1
    66   22   58       1
    67   23   59       1
    68   27   60       1
    69   28   61       1
    70   29   62       1
    71   30   63       1
    72   32   64       1
    73   32   65       1
    74   32   66       1
    75   33   67       1
    76   33   68       1
    77   35   69       1
    78   35   70       1
    79   36   71       1
    80   36   72       1
    81   37   73       1
    82   38   74       1
    83   38   75       1
    84   40   76       1
    85   41   77       1
    86   43   78       1
    87   46   79       1
    88   47   80       1
@<TRIPOS>SUBSTRUCTURE
     1 OHH901      1 GROUP             4 A     OHH     0 **** OHH A 901
