@<TRIPOS>MOLECULE
4da4_SAH_1_ligand
   46    48     1     0     0
SMALL
NO_CHARGES


@<TRIPOS>ATOM
     1 N            9.7270     4.5220    -5.5620 N.4          1 SAH1701   1.0000
     2 CA           9.2850     4.1150    -6.8980 C.3          1 SAH1701   0.0000
     3 CB           8.4210     2.8430    -6.8760 C.3          1 SAH1701   0.0000
     4 CG           8.7060     1.8050    -5.7840 C.3          1 SAH1701   0.0000
     5 SD           7.7590     0.2730    -6.0370 S.3          1 SAH1701   0.0000
     6 C            8.5920     5.2460    -7.6660 C.2          1 SAH1701   0.0000
     7 O            7.9660     5.0120    -8.7100 O.co2        1 SAH1701   0.0000
     8 OXT          8.6440     6.4100    -7.2570 O.co2        1 SAH1701  -1.0000
     9 C5'          9.1090    -0.8110    -5.4990 C.3          1 SAH1701   0.0000
    10 C4'          9.3030    -1.9120    -6.5340 C.3          1 SAH1701   0.0000
    11 O4'         10.3340    -2.8300    -6.2090 O.3          1 SAH1701   0.0000
    12 C3'          8.0280    -2.7270    -6.6860 C.3          1 SAH1701   0.0000
    13 O3'          7.3110    -2.2860    -7.8260 O.3          1 SAH1701   0.0000
    14 C2'          8.5110    -4.1740    -6.7720 C.3          1 SAH1701   0.0000
    15 O2'          8.0180    -4.8540    -7.9060 O.3          1 SAH1701   0.0000
    16 C1'         10.0320    -4.0720    -6.8200 C.3          1 SAH1701   0.0000
    17 N9          10.6570    -5.2400    -6.1550 N.pl3        1 SAH1701   0.0000
    18 C8          10.0690    -6.0630    -5.2200 C.2          1 SAH1701   0.0000
    19 N7          10.9590    -7.0220    -4.8680 N.2          1 SAH1701   0.0000
    20 C5          12.1060    -6.8310    -5.5610 C.ar         1 SAH1701   0.0000
    21 C6          13.3180    -7.5180    -5.5760 C.ar         1 SAH1701   0.0000
    22 N6          13.4920    -8.5880    -4.7990 N.pl3        1 SAH1701   0.0000
    23 N1          14.3390    -7.0890    -6.4010 N.ar         1 SAH1701   0.0000
    24 C2          14.1490    -5.9800    -7.2070 C.ar         1 SAH1701   0.0000
    25 N3          12.9430    -5.2990    -7.1900 N.ar         1 SAH1701   0.0000
    26 C4          11.9320    -5.7180    -6.3800 C.ar         1 SAH1701   0.0000
    27 H1          10.6027     4.0865    -5.3535 H            1 SAH1701   0.0000
    28 H2           9.8342     5.5159    -5.5347 H            1 SAH1701   0.0000
    29 HA          10.1115     3.8875    -7.4130 H            1 SAH1701   0.0000
    30 HB1          8.5380     2.3875    -7.7585 H            1 SAH1701   0.0000
    31 HB2          7.4688     3.1307    -6.7730 H            1 SAH1701   0.0000
    32 HG1          8.4595     2.1941    -4.8964 H            1 SAH1701   0.0000
    33 HG2          9.6818     1.5866    -5.7929 H            1 SAH1701   0.0000
    34 H5'1         8.8799    -1.2184    -4.6150 H            1 SAH1701   0.0000
    35 H5'2         9.9517    -0.2796    -5.4128 H            1 SAH1701   0.0000
    36 H4'          9.5182    -1.4886    -7.4140 H            1 SAH1701   0.0000
    37 H3'          7.4604    -2.6130    -5.8706 H            1 SAH1701   0.0000
    38 H12          7.8776    -2.4024    -8.6417 H            1 SAH1701   0.0000
    39 H2'          8.2371    -4.6652    -5.9451 H            1 SAH1701   0.0000
    40 H14          8.3207    -4.3833    -8.7347 H            1 SAH1701   0.0000
    41 H1'         10.3265    -4.0451    -7.7753 H            1 SAH1701   0.0000
    42 H16          9.1405    -5.9685    -4.8610 H            1 SAH1701   0.0000
    43 H17         14.3631    -9.0790    -4.8120 H            1 SAH1701   0.0000
    44 H18         12.7514    -8.8992    -4.2035 H            1 SAH1701   0.0000
    45 H19         14.8871    -5.6684    -7.8054 H            1 SAH1701   0.0000
    46 H20          9.0459     4.2415    -4.8857 H            1 SAH1701   0.0000
@<TRIPOS>BOND
     1    1    2       1
     2    2    3       1
     3    2    6       1
     4    3    4       1
     5    4    5       1
     6    5    9       1
     7    6    7      ar
     8    6    8      ar
     9    9   10       1
    10   10   11       1
    11   10   12       1
    12   11   16       1
    13   12   13       1
    14   12   14       1
    15   14   15       1
    16   14   16       1
    17   16   17       1
    18   17   18       1
    19   17   26       1
    20   18   19       2
    21   19   20       1
    22   20   21      ar
    23   20   26      ar
    24   21   22       1
    25   21   23      ar
    26   23   24      ar
    27   24   25      ar
    28   25   26      ar
    29    1   27       1
    30    1   28       1
    31    2   29       1
    32    3   30       1
    33    3   31       1
    34    4   32       1
    35    4   33       1
    36    1   46       1
    37    9   34       1
    38    9   35       1
    39   10   36       1
    40   12   37       1
    41   13   38       1
    42   14   39       1
    43   15   40       1
    44   16   41       1
    45   18   42       1
    46   22   43       1
    47   22   44       1
    48   24   45       1
@<TRIPOS>SUBSTRUCTURE
     1 SAH1701     1 GROUP             4 A     SAH     0 **** SAH A1701
