@<TRIPOS>MOLECULE
1kny_APC_1_ligand
   45    47     1     0     0
SMALL
NO_CHARGES


@<TRIPOS>ATOM
     1 PG          10.5430    38.0230    39.7420 P.3          1 APC556   0.0000
     2 O1G         10.2290    39.0840    40.7630 O.co2        1 APC556   0.0000
     3 O2G          9.4170    37.0390    39.6480 O.co2        1 APC556  -1.0000
     4 O3G         11.8920    37.2570    40.1460 O.co2        1 APC556  -1.0000
     5 PB          11.5690    40.0320    37.9440 P.3          1 APC556   0.0000
     6 O1B         11.9410    39.9870    36.4840 O.co2        1 APC556   0.0000
     7 O2B         10.7820    41.2530    38.2440 O.co2        1 APC556  -1.0000
     8 O3B         10.7300    38.7220    38.3250 O.3          1 APC556   0.0000
     9 PA          13.8710    41.5680    39.3480 P.3          1 APC556   0.0000
    10 O1A         14.0820    41.6600    40.8230 O.co2        1 APC556   0.0000
    11 O2A         15.2130    41.6030    38.6790 O.co2        1 APC556  -1.0000
    12 C3A         13.0660    40.0180    38.9420 C.3          1 APC556   0.0000
    13 O5'         12.9910    42.8060    38.8650 O.3          1 APC556   0.0000
    14 C5'         13.7390    43.8520    38.2360 C.3          1 APC556   0.0000
    15 C4'         13.0650    44.3070    36.9640 C.3          1 APC556   0.0000
    16 O4'         13.5950    45.6290    36.6560 O.3          1 APC556   0.0000
    17 C3'         13.3320    43.4300    35.7410 C.3          1 APC556   0.0000
    18 O3'         12.2250    42.5410    35.4690 O.3          1 APC556   0.0000
    19 C2'         13.6410    44.4540    34.6360 C.3          1 APC556   0.0000
    20 O2'         12.4910    44.7140    33.8190 O.3          1 APC556   0.0000
    21 C1'         14.0290    45.7310    35.3510 C.3          1 APC556   0.0000
    22 N9          15.4620    46.0690    35.4040 N.pl3        1 APC556   0.0000
    23 C8          16.0050    47.3300    35.3060 C.2          1 APC556   0.0000
    24 N7          17.3070    47.3720    35.5130 N.2          1 APC556   0.0000
    25 C5          17.6420    46.0630    35.9070 C.ar         1 APC556   0.0000
    26 C6          18.8920    45.4840    36.2690 C.ar         1 APC556   0.0000
    27 N6          19.9610    46.0620    36.3880 N.pl3        1 APC556   0.0000
    28 N1          18.7770    44.1500    36.3310 N.ar         1 APC556   0.0000
    29 C2          17.6460    43.4020    36.1970 C.ar         1 APC556   0.0000
    30 N3          16.5050    43.9050    35.9370 N.ar         1 APC556   0.0000
    31 C4          16.5500    45.2340    35.7270 C.ar         1 APC556   0.0000
    32 H3A1        13.7370    39.4614    38.4521 H            1 APC556   0.0000
    33 H3A2        12.8341    39.5751    39.8081 H            1 APC556   0.0000
    34 H5'1        14.6548    43.5143    38.0185 H            1 APC556   0.0000
    35 H5'2        13.8100    44.6269    38.8641 H            1 APC556   0.0000
    36 H4'         12.0788    44.3723    37.1163 H            1 APC556   0.0000
    37 H3'         14.1511    42.8819    35.9104 H            1 APC556   0.0000
    38 H7          12.3595    41.6809    35.9611 H            1 APC556   0.0000
    39 H2'         14.3999    44.1318    34.0701 H            1 APC556   0.0000
    40 H9          11.9712    45.4748    34.2076 H            1 APC556   0.0000
    41 H1'         13.5441    46.4912    34.9187 H            1 APC556   0.0000
    42 H11         15.4607    48.1423    35.0964 H            1 APC556   0.0000
    43 H12         20.7797    45.5504    36.6486 H            1 APC556   0.0000
    44 H13         20.0177    47.0470    36.2248 H            1 APC556   0.0000
    45 H14         17.7150    42.4106    36.3081 H            1 APC556   0.0000
@<TRIPOS>BOND
     1    1    2      ar
     2    1    3      ar
     3    1    4      ar
     4    1    8       1
     5    5    6      ar
     6    5    7      ar
     7    5    8       1
     8    5   12       1
     9    9   10      ar
    10    9   11      ar
    11    9   12       1
    12    9   13       1
    13   13   14       1
    14   14   15       1
    15   15   16       1
    16   15   17       1
    17   16   21       1
    18   17   18       1
    19   17   19       1
    20   19   20       1
    21   19   21       1
    22   21   22       1
    23   22   23       1
    24   22   31       1
    25   23   24       2
    26   24   25       1
    27   25   26      ar
    28   25   31      ar
    29   26   27       1
    30   26   28      ar
    31   28   29      ar
    32   29   30      ar
    33   30   31      ar
    34   29   45       1
    35   27   44       1
    36   27   43       1
    37   23   42       1
    38   12   32       1
    39   12   33       1
    40   14   34       1
    41   14   35       1
    42   15   36       1
    43   17   37       1
    44   18   38       1
    45   19   39       1
    46   20   40       1
    47   21   41       1
@<TRIPOS>SUBSTRUCTURE
     1 APC556      1 GROUP             4 A     APC     0 **** APC A 556
