@<TRIPOS>MOLECULE
3tox_NAP_7_ligand
   73    77     1     0     0
SMALL
NO_CHARGES


@<TRIPOS>ATOM
     1 PA          -6.4350     2.0840    50.7220 P.3          1 NAP601   0.0000
     2 O1A         -5.4320     3.1610    50.8960 O.co2        1 NAP601   0.0000
     3 O2A         -6.8430     1.6460    49.3780 O.co2        1 NAP601  -1.0000
     4 O5B         -7.7310     2.5560    51.6490 O.3          1 NAP601   0.0000
     5 C5B         -7.3730     3.1360    52.9340 C.3          1 NAP601   0.0000
     6 C4B         -8.4180     4.1580    53.3970 C.3          1 NAP601   0.0000
     7 O4B         -7.9660     4.7350    54.5840 O.3          1 NAP601   0.0000
     8 C3B         -8.5130     5.2650    52.3370 C.3          1 NAP601   0.0000
     9 O3B         -9.8660     5.2830    51.8650 O.3          1 NAP601   0.0000
    10 C2B         -8.2500     6.5410    53.0550 C.3          1 NAP601   0.0000
    11 O2B         -9.3020     7.5150    52.6610 O.3          1 NAP601   0.0000
    12 C1B         -8.2930     6.1790    54.5630 C.3          1 NAP601   0.0000
    13 N9A         -7.4120     7.2280    55.3600 N.pl3        1 NAP601   0.0000
    14 C8A         -6.0680     7.3820    55.3940 C.2          1 NAP601   0.0000
    15 N7A         -5.7830     8.4730    56.1200 N.2          1 NAP601   0.0000
    16 C5A         -6.9410     9.0380    56.5610 C.ar         1 NAP601   0.0000
    17 C6A         -7.2200    10.1520    57.3310 C.ar         1 NAP601   0.0000
    18 N6A         -6.2030    10.8670    57.8180 N.pl3        1 NAP601   0.0000
    19 N1A         -8.4680    10.5260    57.6560 N.ar         1 NAP601   0.0000
    20 C2A         -9.6470     9.7540    57.1440 C.ar         1 NAP601   0.0000
    21 N3A         -9.2640     8.5520    56.3510 N.ar         1 NAP601   0.0000
    22 C4A         -7.9540     8.2510    56.0800 C.ar         1 NAP601   0.0000
    23 O3          -5.7560     0.7490    51.5290 O.3          1 NAP601   0.0000
    24 PN          -6.5500    -0.6100    52.1260 P.3          1 NAP601   0.0000
    25 O1N         -5.5670    -1.7480    52.0360 O.co2        1 NAP601   0.0000
    26 O2N         -7.8950    -0.7820    51.5760 O.co2        1 NAP601  -1.0000
    27 O5D         -6.6830    -0.0640    53.7070 O.3          1 NAP601   0.0000
    28 C5D         -7.6870    -0.5670    54.6150 C.3          1 NAP601   0.0000
    29 C4D         -7.0140    -0.9750    55.9390 C.3          1 NAP601   0.0000
    30 O4D         -6.2520    -2.1680    55.6410 O.3          1 NAP601   0.0000
    31 C3D         -5.9890     0.0720    56.4330 C.3          1 NAP601   0.0000
    32 O3D         -6.2190     0.3060    57.8570 O.3          1 NAP601   0.0000
    33 C2D         -4.6300    -0.6230    56.0550 C.3          1 NAP601   0.0000
    34 O2D         -3.4540    -0.1610    56.7400 O.3          1 NAP601   0.0000
    35 C1D         -5.0300    -2.0730    56.3610 C.3          1 NAP601   0.0000
    36 N1N         -4.1060    -3.1010    55.7970 N.ar         1 NAP601   1.0000
    37 C2N         -3.9300    -3.2080    54.3630 C.ar         1 NAP601   0.0000
    38 C3N         -3.0530    -4.1670    53.8270 C.ar         1 NAP601   0.0000
    39 C7N         -2.8350    -4.2710    52.4090 C.2          1 NAP601   0.0000
    40 O7N         -2.0560    -5.0950    51.9190 O.2          1 NAP601   0.0000
    41 N7N         -3.4940    -3.3880    51.6110 N.am         1 NAP601   0.0000
    42 C4N         -2.4090    -5.0250    54.7660 C.ar         1 NAP601   0.0000
    43 C5N         -2.6210    -4.9740    56.1700 C.ar         1 NAP601   0.0000
    44 C6N         -3.4940    -4.0150    56.7080 C.ar         1 NAP601   0.0000
    45 P2B         -8.9880     9.0580    52.2300 P.3          1 NAP601   0.0000
    46 O1X         -7.5950     9.0440    51.7490 O.co2        1 NAP601   0.0000
    47 O2X         -9.2190     9.6690    53.5470 O.co2        1 NAP601  -1.0000
    48 O3X        -10.0170     9.4140    51.1910 O.co2        1 NAP601  -1.0000
    49 H5B1        -6.4870     3.5920    52.8497 H            1 NAP601   0.0000
    50 H5B2        -7.3086     2.4056    53.6140 H            1 NAP601   0.0000
    51 H4B         -9.3066     3.7197    53.5321 H            1 NAP601   0.0000
    52 H3B         -7.8630     5.1196    51.5911 H            1 NAP601   0.0000
    53 H5         -10.1086     6.2115    51.5837 H            1 NAP601   0.0000
    54 H2B         -7.3463     6.8931    52.8112 H            1 NAP601   0.0000
    55 H1B         -9.2386     6.2802    54.8722 H            1 NAP601   0.0000
    56 H8A         -5.3999     6.7832    54.9522 H            1 NAP601   0.0000
    57 H6A1        -6.3833    11.6762    58.3772 H            1 NAP601   0.0000
    58 H6A2        -5.2610    10.5933    57.6236 H            1 NAP601   0.0000
    59 H2A        -10.5955    10.0193    57.3174 H            1 NAP601   0.0000
    60 H5D1        -8.1364    -1.3628    54.2091 H            1 NAP601   0.0000
    61 H5D2        -8.3661     0.1457    54.7908 H            1 NAP601   0.0000
    62 H4D         -7.6998    -1.1592    56.6431 H            1 NAP601   0.0000
    63 H3D         -6.0939     0.9251    55.9220 H            1 NAP601   0.0000
    64 H16         -7.1491     0.6472    57.9928 H            1 NAP601   0.0000
    65 H2D         -4.4851    -0.5308    55.0699 H            1 NAP601   0.0000
    66 H18         -3.7049     0.1615    57.6527 H            1 NAP601   0.0000
    67 H1D         -5.1736    -2.2116    57.3409 H            1 NAP601   0.0000
    68 H2N         -4.4342    -2.5975    53.7523 H            1 NAP601   0.0000
    69 H7N1        -3.3725    -3.4234    50.6190 H            1 NAP601   0.0000
    70 H7N2        -4.0999    -2.7035    52.0164 H            1 NAP601   0.0000
    71 H4N         -1.7671    -5.7062    54.4140 H            1 NAP601   0.0000
    72 H5N         -2.1503    -5.6185    56.7725 H            1 NAP601   0.0000
    73 H6N         -3.6798    -3.9736    57.6897 H            1 NAP601   0.0000
@<TRIPOS>BOND
     1    1    2      ar
     2    1    3      ar
     3    1    4       1
     4    1   23       1
     5    4    5       1
     6    5    6       1
     7    6    7       1
     8    6    8       1
     9    7   12       1
    10    8    9       1
    11    8   10       1
    12   10   11       1
    13   10   12       1
    14   11   45       1
    15   12   13       1
    16   13   14       1
    17   13   22       1
    18   14   15       2
    19   15   16       1
    20   16   17      ar
    21   16   22      ar
    22   17   18       1
    23   17   19      ar
    24   19   20      ar
    25   20   21      ar
    26   21   22      ar
    27   23   24       1
    28   24   25      ar
    29   24   26      ar
    30   24   27       1
    31   27   28       1
    32   28   29       1
    33   29   30       1
    34   29   31       1
    35   30   35       1
    36   31   32       1
    37   31   33       1
    38   33   34       1
    39   33   35       1
    40   35   36       1
    41   36   37      ar
    42   36   44      ar
    43   37   38      ar
    44   38   39       1
    45   38   42      ar
    46   39   40       2
    47   39   41      am
    48   42   43      ar
    49   43   44      ar
    50   45   46      ar
    51   45   47      ar
    52   45   48      ar
    53   43   72       1
    54    5   49       1
    55    5   50       1
    56    6   51       1
    57    8   52       1
    58    9   53       1
    59   10   54       1
    60   12   55       1
    61   14   56       1
    62   18   57       1
    63   18   58       1
    64   20   59       1
    65   44   73       1
    66   28   60       1
    67   28   61       1
    68   29   62       1
    69   31   63       1
    70   32   64       1
    71   33   65       1
    72   34   66       1
    73   35   67       1
    74   37   68       1
    75   41   69       1
    76   41   70       1
    77   42   71       1
@<TRIPOS>SUBSTRUCTURE
     1 NAP601      1 GROUP             4 G     NAP     0 **** NAP G 601
