@<TRIPOS>MOLECULE
4pu2_PLU_1_ligand
   23    22     1     0     0
SMALL
NO_CHARGES


@<TRIPOS>ATOM
     1 CA          11.4920   -44.4730    23.5960 C.3          1 PLU901   0.0000
     2 CB          12.2410   -43.5670    22.6450 C.3          1 PLU901   0.0000
     3 CG          13.7200   -43.5440    22.9630 C.3          1 PLU901   0.0000
     4 CD1         14.0290   -42.4300    23.9380 C.3          1 PLU901   0.0000
     5 CD2         14.5690   -43.4520    21.7140 C.3          1 PLU901   0.0000
     6 N           11.6950   -45.8330    23.2270 N.4          1 PLU901   1.0000
     7 P            9.7190   -44.0930    23.5400 P.3          1 PLU901   0.0000
     8 O1           9.1610   -44.5330    22.2110 O.co2        1 PLU901   0.0000
     9 O2           9.5030   -42.6090    23.7060 O.co2        1 PLU901  -1.0000
    10 O3           9.0170   -44.8410    24.6470 O.co2        1 PLU901  -1.0000
    11 HA          11.8314   -44.3289    24.5255 H            1 PLU901   0.0000
    12 HB1         11.8761   -42.6392    22.7227 H            1 PLU901   0.0000
    13 HB2         12.1134   -43.8982    21.7101 H            1 PLU901   0.0000
    14 HG          13.9432   -44.4080    23.4143 H            1 PLU901   0.0000
    15 HD11        15.0084   -42.4257    24.1397 H            1 PLU901   0.0000
    16 HD12        13.7677   -41.5527    23.5355 H            1 PLU901   0.0000
    17 HD13        13.5152   -42.5750    24.7836 H            1 PLU901   0.0000
    18 HD21        15.5360   -43.4395    21.9684 H            1 PLU901   0.0000
    19 HD22        14.3884   -44.2428    21.1292 H            1 PLU901   0.0000
    20 HD23        14.3437   -42.6129    21.2189 H            1 PLU901   0.0000
    21 H11         11.6496   -46.4100    24.0425 H            1 PLU901   0.0000
    22 H12         10.9849   -46.1126    22.5808 H            1 PLU901   0.0000
    23 H13         12.5931   -45.9316    22.7985 H            1 PLU901   0.0000
@<TRIPOS>BOND
     1    1    2       1
     2    1    6       1
     3    1    7       1
     4    2    3       1
     5    3    4       1
     6    3    5       1
     7    7    8      ar
     8    7    9      ar
     9    7   10      ar
    10    1   11       1
    11    2   12       1
    12    2   13       1
    13    3   14       1
    14    4   15       1
    15    4   16       1
    16    4   17       1
    17    5   18       1
    18    5   19       1
    19    5   20       1
    20    6   21       1
    21    6   22       1
    22    6   23       1
@<TRIPOS>SUBSTRUCTURE
     1 PLU901      1 GROUP             4 A     PLU     0 **** PLU A 901
