@<TRIPOS>MOLECULE
1e1f_PSG_1_ligand
   36    37     1     0     0
SMALL
NO_CHARGES


@<TRIPOS>ATOM
     1 C7          -6.4520    -2.8810    82.4480 C.ar         1 PSG513   0.0000
     2 C8          -7.5690    -3.6170    82.8610 C.ar         1 PSG513   0.0000
     3 C9          -7.5620    -4.2570    84.1270 C.ar         1 PSG513   0.0000
     4 C10         -6.4400    -4.1180    84.9860 C.ar         1 PSG513   0.0000
     5 C11         -5.3550    -3.2960    84.6010 C.ar         1 PSG513   0.0000
     6 C12         -5.3700    -2.6170    83.3610 C.ar         1 PSG513   0.0000
     7 N1          -8.7420    -5.0840    84.5640 N.2          1 PSG513   1.0000
     8 O11         -8.8160    -5.4950    85.6970 O.co2        1 PSG513   0.0000
     9 O12         -9.6300    -5.3520    83.7880 O.co2        1 PSG513  -1.0000
    10 S1          -4.0220    -1.4710    82.9400 S.3          1 PSG513   0.0000
    11 C1          -4.7010     0.0960    82.2160 C.3          1 PSG513   0.0000
    12 C2          -3.9720     0.4750    80.8840 C.3          1 PSG513   0.0000
    13 C3          -4.6260     1.6530    80.1110 C.3          1 PSG513   0.0000
    14 C4          -6.1760     1.6810    80.1730 C.3          1 PSG513   0.0000
    15 C5          -6.7060     1.2860    81.5700 C.3          1 PSG513   0.0000
    16 C6          -8.2240     1.1370    81.6470 C.3          1 PSG513   0.0000
    17 O2          -2.6130     0.8160    81.1480 O.3          1 PSG513   0.0000
    18 O3          -4.2110     1.6120    78.7480 O.3          1 PSG513   0.0000
    19 O4          -6.6370     2.9840    79.8460 O.3          1 PSG513   0.0000
    20 O5          -6.1290     0.0270    81.9890 O.3          1 PSG513   0.0000
    21 O6          -8.7060     0.0710    80.8420 O.3          1 PSG513   0.0000
    22 H1          -6.4050    -2.5355    81.5107 H            1 PSG513   0.0000
    23 H2          -8.3690    -3.6913    82.2656 H            1 PSG513   0.0000
    24 H3          -6.4168    -4.6004    85.8617 H            1 PSG513   0.0000
    25 H4          -4.5698    -3.1942    85.2118 H            1 PSG513   0.0000
    26 H5          -4.5336     0.8310    82.8730 H            1 PSG513   0.0000
    27 H6          -3.9793    -0.3280    80.2881 H            1 PSG513   0.0000
    28 H7          -4.2879     2.5059    80.5088 H            1 PSG513   0.0000
    29 H8          -6.5355     1.0353    79.4994 H            1 PSG513   0.0000
    30 H9          -6.4269     1.9910    82.2219 H            1 PSG513   0.0000
    31 H10         -8.6462     1.9891    81.3376 H            1 PSG513   0.0000
    32 H11         -8.4816     0.9632    82.5975 H            1 PSG513   0.0000
    33 H12         -2.5397     1.2074    82.0653 H            1 PSG513   0.0000
    34 H13         -4.1923     2.5405    78.3772 H            1 PSG513   0.0000
    35 H14         -7.6360     3.0038    79.8855 H            1 PSG513   0.0000
    36 H15         -8.9142     0.4130    79.9257 H            1 PSG513   0.0000
@<TRIPOS>BOND
     1    1    2      ar
     2    1    6      ar
     3    2    3      ar
     4    3    4      ar
     5    3    7       1
     6    4    5      ar
     7    5    6      ar
     8    6   10       1
     9    7    8      ar
    10    7    9      ar
    11   10   11       1
    12   11   12       1
    13   11   20       1
    14   12   13       1
    15   12   17       1
    16   13   14       1
    17   13   18       1
    18   14   15       1
    19   14   19       1
    20   15   16       1
    21   15   20       1
    22   16   21       1
    23    1   22       1
    24    2   23       1
    25    4   24       1
    26    5   25       1
    27   11   26       1
    28   12   27       1
    29   13   28       1
    30   14   29       1
    31   15   30       1
    32   16   31       1
    33   16   32       1
    34   17   33       1
    35   18   34       1
    36   19   35       1
    37   21   36       1
@<TRIPOS>SUBSTRUCTURE
     1 PSG513      1 GROUP             4 A     PSG     0 **** PSG A 513
