@<TRIPOS>MOLECULE
4z38_FMN_2_ligand
   50    52     1     0     0
SMALL
NO_CHARGES


@<TRIPOS>ATOM
     1 N1         -47.2010     1.0450    33.9760 N.2          1 FMN900   0.0000
     2 C2         -47.5790     1.2680    35.2830 C.2          1 FMN900   0.0000
     3 O2         -47.9500     0.3590    36.0380 O.2          1 FMN900   0.0000
     4 N3         -47.6290     2.5400    35.7760 N.pl3        1 FMN900   0.0000
     5 C4         -47.3830     3.6970    35.0650 C.2          1 FMN900   0.0000
     6 O4         -47.5520     4.7870    35.6140 O.2          1 FMN900   0.0000
     7 C4A        -47.0060     3.4700    33.6580 C.2          1 FMN900   0.0000
     8 N5         -46.8790     4.5110    32.8750 N.2          1 FMN900   0.0000
     9 C5A        -46.7330     4.2870    31.5120 C.ar         1 FMN900   0.0000
    10 C6         -46.8000     5.3860    30.6440 C.ar         1 FMN900   0.0000
    11 C7         -46.6990     5.2360    29.2700 C.ar         1 FMN900   0.0000
    12 C7M        -46.9520     6.4310    28.3900 C.3          1 FMN900   0.0000
    13 C8         -46.5090     3.9530    28.7290 C.ar         1 FMN900   0.0000
    14 C8M        -46.3820     3.7360    27.2440 C.3          1 FMN900   0.0000
    15 C9         -46.4770     2.8560    29.5900 C.ar         1 FMN900   0.0000
    16 C9A        -46.6080     2.9950    30.9760 C.ar         1 FMN900   0.0000
    17 N10        -46.6810     1.8930    31.8680 N.pl3        1 FMN900   0.0000
    18 C10        -46.9280     2.0940    33.2040 C.2          1 FMN900   0.0000
    19 C1'        -46.4530     0.5190    31.3790 C.3          1 FMN900   0.0000
    20 C2'        -47.7510     0.0240    30.7430 C.3          1 FMN900   0.0000
    21 O2'        -48.7610     0.0300    31.7520 O.3          1 FMN900   0.0000
    22 C3'        -47.6580    -1.3650    30.1110 C.3          1 FMN900   0.0000
    23 O3'        -47.5980    -2.3380    31.1480 O.3          1 FMN900   0.0000
    24 C4'        -46.4950    -1.6030    29.1520 C.3          1 FMN900   0.0000
    25 O4'        -46.2080    -0.4510    28.3560 O.3          1 FMN900   0.0000
    26 C5'        -46.7210    -2.8310    28.3050 C.3          1 FMN900   0.0000
    27 O5'        -45.6840    -2.7870    27.3030 O.3          1 FMN900   0.0000
    28 P          -45.9230    -2.4530    25.7850 P.3          1 FMN900   0.0000
    29 O1P        -47.2470    -3.1260    25.3580 O.co2        1 FMN900   0.0000
    30 O2P        -45.8720    -0.9410    25.7530 O.co2        1 FMN900  -1.0000
    31 O3P        -44.6780    -2.9260    24.9760 O.co2        1 FMN900  -1.0000
    32 H1         -47.8659     2.6430    36.7421 H            1 FMN900   0.0000
    33 H2         -46.9239     6.3017    31.0262 H            1 FMN900   0.0000
    34 H7M1       -46.8426     6.1682    27.4314 H            1 FMN900   0.0000
    35 H7M2       -47.8828     6.7644    28.5401 H            1 FMN900   0.0000
    36 H7M3       -46.2987     7.1542    28.6140 H            1 FMN900   0.0000
    37 H8M1       -46.2531     2.7617    27.0593 H            1 FMN900   0.0000
    38 H8M2       -47.2132     4.0545    26.7883 H            1 FMN900   0.0000
    39 H8M3       -45.5954     4.2477    26.8984 H            1 FMN900   0.0000
    40 H9         -46.3566     1.9412    29.2044 H            1 FMN900   0.0000
    41 H1'1       -46.2006    -0.0756    32.1424 H            1 FMN900   0.0000
    42 H1'2       -45.7197     0.5179    30.6991 H            1 FMN900   0.0000
    43 H2'        -48.0173     0.6737    30.0310 H            1 FMN900   0.0000
    44 H13        -49.2218     0.9175    31.7571 H            1 FMN900   0.0000
    45 H3'        -48.5043    -1.5206    29.6015 H            1 FMN900   0.0000
    46 H15        -46.6432    -2.5044    31.3941 H            1 FMN900   0.0000
    47 H4'        -45.6859    -1.7797    29.7124 H            1 FMN900   0.0000
    48 H17        -46.3148    -0.6794    27.3883 H            1 FMN900   0.0000
    49 H5'1       -47.6246    -2.8022    27.8776 H            1 FMN900   0.0000
    50 H5'2       -46.6404    -3.6599    28.8586 H            1 FMN900   0.0000
@<TRIPOS>BOND
     1    1    2       1
     2    1   18       2
     3    2    3       2
     4    2    4       1
     5    4    5       1
     6    5    6       2
     7    5    7       1
     8    7    8       2
     9    7   18       1
    10    8    9       1
    11    9   10      ar
    12    9   16      ar
    13   10   11      ar
    14   11   12       1
    15   11   13      ar
    16   13   14       1
    17   13   15      ar
    18   15   16      ar
    19   16   17       1
    20   17   18       1
    21   17   19       1
    22   19   20       1
    23   20   21       1
    24   20   22       1
    25   22   23       1
    26   22   24       1
    27   24   25       1
    28   24   26       1
    29   26   27       1
    30   27   28       1
    31   28   29      ar
    32   28   30      ar
    33   28   31      ar
    34    4   32       1
    35   10   33       1
    36   12   34       1
    37   12   35       1
    38   12   36       1
    39   14   37       1
    40   14   38       1
    41   14   39       1
    42   15   40       1
    43   19   41       1
    44   19   42       1
    45   20   43       1
    46   21   44       1
    47   22   45       1
    48   23   46       1
    49   24   47       1
    50   25   48       1
    51   26   49       1
    52   26   50       1
@<TRIPOS>SUBSTRUCTURE
     1 FMN900      1 GROUP             4 B     FMN     0 **** FMN B 900
