@<TRIPOS>MOLECULE
1vbm_YSA_2_ligand
   59    62     1     0     0
SMALL
NO_CHARGES


@<TRIPOS>ATOM
     1 CD1         20.7520   166.4400   213.8710 C.ar         1 YSA3002   0.0000
     2 CE1         19.8770   167.5160   213.7560 C.ar         1 YSA3002   0.0000
     3 CZ          19.0780   167.6450   212.6230 C.ar         1 YSA3002   0.0000
     4 OH          18.2230   168.6960   212.5080 O.3          1 YSA3002   0.0000
     5 CE2         19.1510   166.6960   211.6070 C.ar         1 YSA3002   0.0000
     6 CD2         20.0260   165.6200   211.7230 C.ar         1 YSA3002   0.0000
     7 CG          20.8290   165.4940   212.8530 C.ar         1 YSA3002   0.0000
     8 CB          21.8410   164.3490   212.9560 C.3          1 YSA3002   0.0000
     9 CA          21.1760   162.9710   212.9620 C.3          1 YSA3002   0.0000
    10 N           20.3270   162.8280   214.1550 N.4          1 YSA3002   1.0000
    11 C           22.2560   161.8870   212.9730 C.2          1 YSA3002   0.0000
    12 O           22.3270   161.0740   213.8920 O.2          1 YSA3002   0.0000
    13 NAT         23.0640   161.8900   211.9150 N.am         1 YSA3002   0.0000
    14 SBI         24.2720   160.8030   211.7890 S.o2         1 YSA3002   0.0000
    15 OAD         23.7230   159.4070   211.8320 O.2          1 YSA3002   0.0000
    16 OAE         25.2260   160.9960   212.9310 O.2          1 YSA3002   0.0000
    17 O5'         25.0120   161.0220   210.5020 O.3          1 YSA3002   0.0000
    18 C5'         24.9240   160.0910   209.4180 C.3          1 YSA3002   0.0000
    19 C4'         23.7770   160.4150   208.4550 C.3          1 YSA3002   0.0000
    20 O4'         23.8640   159.5690   207.2940 O.3          1 YSA3002   0.0000
    21 C3'         22.3990   160.1250   209.0510 C.3          1 YSA3002   0.0000
    22 O3'         21.3800   160.7770   208.2870 O.3          1 YSA3002   0.0000
    23 C2'         22.3250   158.6150   208.8390 C.3          1 YSA3002   0.0000
    24 O2'         20.9510   158.2180   208.8400 O.3          1 YSA3002   0.0000
    25 C1'         22.9210   158.4890   207.4340 C.3          1 YSA3002   0.0000
    26 N9          23.5900   157.1760   207.2600 N.pl3        1 YSA3002   0.0000
    27 C8          24.4730   156.6420   208.1000 C.2          1 YSA3002   0.0000
    28 N7          24.8940   155.4660   207.6380 N.2          1 YSA3002   0.0000
    29 C5          24.2720   155.2490   206.4840 C.ar         1 YSA3002   0.0000
    30 C4          23.4410   156.3330   206.2410 C.ar         1 YSA3002   0.0000
    31 N3          22.7010   156.3510   205.1200 N.ar         1 YSA3002   0.0000
    32 C2          22.7570   155.3580   204.2510 C.ar         1 YSA3002   0.0000
    33 N1          23.5400   154.3100   204.4540 N.ar         1 YSA3002   0.0000
    34 C6          24.3070   154.2210   205.5500 C.ar         1 YSA3002   0.0000
    35 N6          25.1010   153.1720   205.7480 N.pl3        1 YSA3002   0.0000
    36 HD1         21.3254   166.3465   214.6849 H            1 YSA3002   0.0000
    37 HE1         19.8221   168.1963   214.4868 H            1 YSA3002   0.0000
    38 HH          18.1675   169.3775   213.2377 H            1 YSA3002   0.0000
    39 HE2         18.5752   166.7874   210.7945 H            1 YSA3002   0.0000
    40 HD2         20.0779   164.9371   210.9943 H            1 YSA3002   0.0000
    41 HB1         22.3608   164.4569   213.8034 H            1 YSA3002   0.0000
    42 HB2         22.4629   164.4006   212.1746 H            1 YSA3002   0.0000
    43 HA          20.6139   162.8706   212.1411 H            1 YSA3002   0.0000
    44 H9          19.4025   163.1469   213.9463 H            1 YSA3002   0.0000
    45 H10         20.2944   161.8664   214.4276 H            1 YSA3002   0.0000
    46 HAT         22.9285   162.5658   211.1905 H            1 YSA3002   0.0000
    47 H5'1        24.7784   159.1755   209.7931 H            1 YSA3002   0.0000
    48 H5'2        25.7846   160.1097   208.9090 H            1 YSA3002   0.0000
    49 H4'         23.8297   161.3744   208.1781 H            1 YSA3002   0.0000
    50 H3'         22.3526   160.3686   210.0198 H            1 YSA3002   0.0000
    51 H16         21.8000   161.2787   207.5307 H            1 YSA3002   0.0000
    52 H2'         22.8602   158.1144   209.5194 H            1 YSA3002   0.0000
    53 H18         20.8744   157.2831   209.1866 H            1 YSA3002   0.0000
    54 H1'         22.1956   158.5878   206.7528 H            1 YSA3002   0.0000
    55 H20         24.7767   157.0629   208.9548 H            1 YSA3002   0.0000
    56 H21         22.1970   155.3986   203.4235 H            1 YSA3002   0.0000
    57 H22         25.1275   152.4312   205.0768 H            1 YSA3002   0.0000
    58 H23         25.6713   153.1243   206.5680 H            1 YSA3002   0.0000
    59 H24         20.7071   163.3735   214.9020 H            1 YSA3002   0.0000
@<TRIPOS>BOND
     1    1    2      ar
     2    1    7      ar
     3    2    3      ar
     4    3    4       1
     5    3    5      ar
     6    5    6      ar
     7    6    7      ar
     8    7    8       1
     9    8    9       1
    10    9   10       1
    11    9   11       1
    12   11   12       2
    13   11   13      am
    14   13   14       1
    15   14   15       2
    16   14   16       2
    17   14   17       1
    18   17   18       1
    19   18   19       1
    20   19   20       1
    21   19   21       1
    22   20   25       1
    23   21   22       1
    24   21   23       1
    25   23   24       1
    26   23   25       1
    27   25   26       1
    28   26   27       1
    29   26   30       1
    30   27   28       2
    31   28   29       1
    32   29   30      ar
    33   29   34      ar
    34   30   31      ar
    35   31   32      ar
    36   32   33      ar
    37   33   34      ar
    38   34   35       1
    39    1   36       1
    40    2   37       1
    41    4   38       1
    42    5   39       1
    43    6   40       1
    44    8   41       1
    45    8   42       1
    46    9   43       1
    47   10   44       1
    48   10   45       1
    49   13   46       1
    50   18   47       1
    51   18   48       1
    52   19   49       1
    53   21   50       1
    54   22   51       1
    55   23   52       1
    56   24   53       1
    57   25   54       1
    58   27   55       1
    59   32   56       1
    60   35   57       1
    61   35   58       1
    62   10   59       1
@<TRIPOS>SUBSTRUCTURE
     1 YSA3002     1 GROUP             4 B     YSA     0 **** YSA B3002
