@<TRIPOS>MOLECULE
4d7e_FAD_2_ligand
   84    89     1     0     0
SMALL
NO_CHARGES


@<TRIPOS>ATOM
     1 PA          66.6920    33.5720    48.6160 P.3          1 FAD500   0.0000
     2 O1A         67.6880    34.6300    48.7500 O.co2        1 FAD500   0.0000
     3 O2A         65.7610    33.2710    49.7810 O.co2        1 FAD500  -1.0000
     4 O5B         67.6440    32.3220    48.3640 O.3          1 FAD500   0.0000
     5 C5B         68.4860    32.2240    47.2160 C.3          1 FAD500   0.0000
     6 C4B         69.4340    31.0980    47.5770 C.3          1 FAD500   0.0000
     7 O4B         70.4670    31.0490    46.6250 O.3          1 FAD500   0.0000
     8 C3B         70.1950    31.2520    48.9110 C.3          1 FAD500   0.0000
     9 O3B         69.8020    30.2240    49.7980 O.3          1 FAD500   0.0000
    10 C2B         71.6870    31.0820    48.5730 C.3          1 FAD500   0.0000
    11 O2B         72.3520    30.1480    49.4330 O.3          1 FAD500   0.0000
    12 C1B         71.6600    30.5070    47.1750 C.3          1 FAD500   0.0000
    13 N9A         72.6820    30.8860    46.1380 N.pl3        1 FAD500   0.0000
    14 C8A         73.2270    32.0820    45.7850 C.2          1 FAD500   0.0000
    15 N7A         74.0370    31.9700    44.7050 N.2          1 FAD500   0.0000
    16 C5A         73.9990    30.6570    44.3400 C.ar         1 FAD500   0.0000
    17 C6A         74.5650    29.8680    43.3480 C.ar         1 FAD500   0.0000
    18 N6A         75.4410    30.3660    42.4130 N.pl3        1 FAD500   0.0000
    19 N1A         74.2430    28.5580    43.3530 N.ar         1 FAD500   0.0000
    20 C2A         73.4020    27.9810    44.2060 C.ar         1 FAD500   0.0000
    21 N3A         72.8120    28.6620    45.2010 N.ar         1 FAD500   0.0000
    22 C4A         73.0840    29.9770    45.2760 C.ar         1 FAD500   0.0000
    23 N1          60.5790    40.4520    50.8630 N.2          1 FAD500   0.0000
    24 C2          59.3720    40.4440    51.4590 C.2          1 FAD500   0.0000
    25 O2          58.3470    40.2870    50.7370 O.2          1 FAD500   0.0000
    26 N3          59.2870    40.5670    52.8030 N.pl3        1 FAD500   0.0000
    27 C4          60.4000    40.7030    53.5430 C.2          1 FAD500   0.0000
    28 O4          60.3530    40.8600    54.7980 O.2          1 FAD500   0.0000
    29 C4X         61.6440    40.7320    52.8990 C.2          1 FAD500   0.0000
    30 N5          62.7510    40.8880    53.6480 N.2          1 FAD500   0.0000
    31 C5X         63.9680    40.6840    53.1810 C.ar         1 FAD500   0.0000
    32 C6          65.0660    40.6490    54.0280 C.ar         1 FAD500   0.0000
    33 C7          66.3560    40.4830    53.5230 C.ar         1 FAD500   0.0000
    34 C7M         67.4950    40.4520    54.4780 C.3          1 FAD500   0.0000
    35 C8          66.5480    40.3230    52.1750 C.ar         1 FAD500   0.0000
    36 C8M         67.9220    40.1520    51.5570 C.3          1 FAD500   0.0000
    37 C9          65.4780    40.3870    51.3140 C.ar         1 FAD500   0.0000
    38 C9A         64.1540    40.5470    51.7550 C.ar         1 FAD500   0.0000
    39 N10         62.9940    40.6180    50.8940 N.pl3        1 FAD500   0.0000
    40 C10         61.7150    40.7850    51.5160 C.2          1 FAD500   0.0000
    41 C1'         63.1450    40.4900    49.4190 C.3          1 FAD500   0.0000
    42 C2'         63.6510    39.0670    49.2950 C.3          1 FAD500   0.0000
    43 O2'         64.9340    38.8490    48.6750 O.3          1 FAD500   0.0000
    44 C3'         62.6140    38.2160    48.6750 C.3          1 FAD500   0.0000
    45 O3'         61.4080    38.7820    49.1690 O.3          1 FAD500   0.0000
    46 C4'         62.9640    36.7870    49.1190 C.3          1 FAD500   0.0000
    47 O4'         64.3350    36.8260    48.7080 O.3          1 FAD500   0.0000
    48 C5'         62.7100    35.5530    48.2960 C.3          1 FAD500   0.0000
    49 O5'         63.9960    34.8530    48.2160 O.3          1 FAD500   0.0000
    50 P           64.3790    33.9460    46.9490 P.3          1 FAD500   0.0000
    51 O1P         63.6680    32.6210    46.7910 O.co2        1 FAD500   0.0000
    52 O2P         64.2480    34.7750    45.6920 O.co2        1 FAD500  -1.0000
    53 O3P         65.9060    33.5750    47.2290 O.3          1 FAD500   0.0000
    54 H5B1        68.9845    33.0773    47.0630 H            1 FAD500   0.0000
    55 H5B2        67.9545    31.9975    46.3998 H            1 FAD500   0.0000
    56 H4B         68.9371    30.2302    47.5748 H            1 FAD500   0.0000
    57 H3B         70.0240    32.1511    49.3139 H            1 FAD500   0.0000
    58 H5          70.0150    29.3348    49.3931 H            1 FAD500   0.0000
    59 H2B         72.1545    31.9660    48.5826 H            1 FAD500   0.0000
    60 H7          71.9174    29.2512    49.3506 H            1 FAD500   0.0000
    61 H1B         71.5847    29.5110    47.2234 H            1 FAD500   0.0000
    62 H8A         73.0506    32.9410    46.2656 H            1 FAD500   0.0000
    63 H6A1        75.8251    29.7610    41.7155 H            1 FAD500   0.0000
    64 H6A2        75.6942    31.3333    42.4303 H            1 FAD500   0.0000
    65 H2A         73.2022    27.0066    44.1028 H            1 FAD500   0.0000
    66 H13         58.3916    40.5567    53.2481 H            1 FAD500   0.0000
    67 H14         64.9311    40.7441    55.0143 H            1 FAD500   0.0000
    68 H7M1        68.3496    40.3280    53.9737 H            1 FAD500   0.0000
    69 H7M2        67.5288    41.3136    54.9845 H            1 FAD500   0.0000
    70 H7M3        67.3727    39.6936    55.1182 H            1 FAD500   0.0000
    71 H8M1        67.8317    40.0520    50.5661 H            1 FAD500   0.0000
    72 H8M2        68.4817    40.9551    51.7613 H            1 FAD500   0.0000
    73 H8M3        68.3588    39.3361    51.9360 H            1 FAD500   0.0000
    74 H21         65.6498    40.3166    50.3314 H            1 FAD500   0.0000
    75 H1'1        63.8082    41.1470    49.0605 H            1 FAD500   0.0000
    76 H1'2        62.2701    40.6097    48.9497 H            1 FAD500   0.0000
    77 H2'         63.7462    38.7335    50.2329 H            1 FAD500   0.0000
    78 H25         65.1361    37.8697    48.6625 H            1 FAD500   0.0000
    79 H3'         62.6516    38.2906    47.6785 H            1 FAD500   0.0000
    80 H27         61.5719    39.1803    50.0715 H            1 FAD500   0.0000
    81 H4'         62.8492    36.6383    50.1012 H            1 FAD500   0.0000
    82 H29         64.6320    35.9066    48.4503 H            1 FAD500   0.0000
    83 H5'1        62.3928    35.8038    47.3814 H            1 FAD500   0.0000
    84 H5'2        62.0256    34.9740    48.7390 H            1 FAD500   0.0000
@<TRIPOS>BOND
     1    1    2      ar
     2    1    3      ar
     3    1    4       1
     4    1   53       1
     5    4    5       1
     6    5    6       1
     7    6    7       1
     8    6    8       1
     9    7   12       1
    10    8    9       1
    11    8   10       1
    12   10   11       1
    13   10   12       1
    14   12   13       1
    15   13   14       1
    16   13   22       1
    17   14   15       2
    18   15   16       1
    19   16   17      ar
    20   16   22      ar
    21   17   18       1
    22   17   19      ar
    23   19   20      ar
    24   20   21      ar
    25   21   22      ar
    26   23   24       1
    27   23   40       2
    28   24   25       2
    29   24   26       1
    30   26   27       1
    31   27   28       2
    32   27   29       1
    33   29   30       2
    34   29   40       1
    35   30   31       1
    36   31   32      ar
    37   31   38      ar
    38   32   33      ar
    39   33   34       1
    40   33   35      ar
    41   35   36       1
    42   35   37      ar
    43   37   38      ar
    44   38   39       1
    45   39   40       1
    46   39   41       1
    47   41   42       1
    48   42   43       1
    49   42   44       1
    50   44   45       1
    51   44   46       1
    52   46   47       1
    53   46   48       1
    54   48   49       1
    55   49   50       1
    56   50   51      ar
    57   50   52      ar
    58   50   53       1
    59   48   84       1
    60    5   54       1
    61    5   55       1
    62    6   56       1
    63    8   57       1
    64    9   58       1
    65   10   59       1
    66   11   60       1
    67   12   61       1
    68   14   62       1
    69   18   63       1
    70   18   64       1
    71   20   65       1
    72   26   66       1
    73   32   67       1
    74   34   68       1
    75   34   69       1
    76   34   70       1
    77   36   71       1
    78   36   72       1
    79   36   73       1
    80   37   74       1
    81   41   75       1
    82   41   76       1
    83   42   77       1
    84   43   78       1
    85   44   79       1
    86   45   80       1
    87   46   81       1
    88   47   82       1
    89   48   83       1
@<TRIPOS>SUBSTRUCTURE
     1 FAD500      1 GROUP             4 B     FAD     0 **** FAD B 500
