@<TRIPOS>MOLECULE
4mzq_1VU_5_ligand
   80    82     1     0     0
SMALL
NO_CHARGES


@<TRIPOS>ATOM
     1 O14         20.4100    10.4420   -80.6840 O.co2        1 1VU201   0.0000
     2 P2          19.0600    10.8490   -80.1300 P.3          1 1VU201   0.0000
     3 O15         18.3310     9.7430   -79.4150 O.co2        1 1VU201  -1.0000
     4 O16         18.2040    11.6200   -81.1090 O.co2        1 1VU201  -1.0000
     5 O13         19.4780    11.9160   -78.9850 O.3          1 1VU201   0.0000
     6 C23         20.0420    11.5330   -77.7350 C.3          1 1VU201   0.0000
     7 C22         20.8020    12.7390   -77.2210 C.3          1 1VU201   0.0000
     8 O12         21.5600    13.3840   -78.2500 O.3          1 1VU201   0.0000
     9 C16         19.6620    13.6110   -76.7330 C.3          1 1VU201   0.0000
    10 N2          20.0310    14.5590   -75.6590 N.pl3        1 1VU201   0.0000
    11 C21         19.8070    15.8730   -75.7080 C.ar         1 1VU201   0.0000
    12 N6          19.2650    16.6520   -76.6680 N.ar         1 1VU201   0.0000
    13 C20         19.1570    17.9710   -76.4760 C.ar         1 1VU201   0.0000
    14 N5          19.5820    18.5370   -75.3440 N.ar         1 1VU201   0.0000
    15 C19         20.1330    17.8060   -74.3550 C.ar         1 1VU201   0.0000
    16 N4          20.5480    18.4300   -73.2220 N.pl3        1 1VU201   0.0000
    17 C18         20.2530    16.4310   -74.5250 C.ar         1 1VU201   0.0000
    18 N3          20.7420    15.4200   -73.7750 N.2          1 1VU201   0.0000
    19 C17         20.5950    14.2650   -74.4780 C.2          1 1VU201   0.0000
    20 O11         18.7160    12.6930   -76.1700 O.3          1 1VU201   0.0000
    21 C15         18.9060    11.3930   -76.7400 C.3          1 1VU201   0.0000
    22 C14         19.1900    10.3660   -75.6550 C.3          1 1VU201   0.0000
    23 O10         20.3240    10.8060   -74.9130 O.3          1 1VU201   0.0000
    24 P1          21.0320     9.8500   -73.8350 P.3          1 1VU201   0.0000
    25 O8          20.9450     8.4300   -74.3510 O.co2        1 1VU201   0.0000
    26 O9          22.3300    10.5140   -73.4500 O.co2        1 1VU201  -1.0000
    27 O7          20.0080    10.0030   -72.6180 O.3          1 1VU201   0.0000
    28 P           20.4200    10.6680   -71.2150 P.3          1 1VU201   0.0000
    29 O5          21.3480     9.7020   -70.5060 O.co2        1 1VU201   0.0000
    30 O6          20.8080    12.1120   -71.4110 O.co2        1 1VU201  -1.0000
    31 O4          18.9550    10.5230   -70.5410 O.3          1 1VU201   0.0000
    32 C13         17.8860    11.3970   -70.9040 C.3          1 1VU201   0.0000
    33 C10         16.8430    11.3630   -69.7970 C.3          1 1VU201   0.0000
    34 C11         15.6430    12.2080   -70.2200 C.3          1 1VU201   0.0000
    35 C12         16.4260     9.9250   -69.5320 C.3          1 1VU201   0.0000
    36 C9          17.5010    11.9520   -68.5450 C.3          1 1VU201   0.0000
    37 O3          18.2740    13.0930   -68.9250 O.3          1 1VU201   0.0000
    38 C8          16.5150    12.4010   -67.5040 C.2          1 1VU201   0.0000
    39 O2          15.9170    11.5910   -66.8230 O.2          1 1VU201   0.0000
    40 N1          16.3820    13.7200   -67.3660 N.am         1 1VU201   0.0000
    41 C7          15.3210    14.3550   -66.5970 C.3          1 1VU201   0.0000
    42 C6          14.1430    14.7090   -67.4900 C.3          1 1VU201   0.0000
    43 C5          13.0960    15.4960   -66.7390 C.2          1 1VU201   0.0000
    44 O1          12.8380    15.2220   -65.5720 O.2          1 1VU201   0.0000
    45 N           12.5060    16.4640   -67.4390 N.am         1 1VU201   0.0000
    46 C4          11.4630    17.3190   -66.8730 C.3          1 1VU201   0.0000
    47 C3          10.1710    16.5510   -66.5530 C.3          1 1VU201   0.0000
    48 S            9.1910    16.1710   -68.0290 S.3          1 1VU201   0.0000
    49 H1          20.6092    10.7119   -77.7979 H            1 1VU201   0.0000
    50 H2          21.3956    12.4800   -76.4590 H            1 1VU201   0.0000
    51 H3          22.0425    14.1708   -77.8651 H            1 1VU201   0.0000
    52 H4          19.2507    14.1025   -77.5006 H            1 1VU201   0.0000
    53 H5          18.7521    18.5415   -77.1905 H            1 1VU201   0.0000
    54 H6          20.9585    17.8992   -72.4806 H            1 1VU201   0.0000
    55 H7          20.4430    19.4201   -73.1294 H            1 1VU201   0.0000
    56 H8          20.8618    13.3526   -74.1675 H            1 1VU201   0.0000
    57 H9          18.0754    11.1278   -77.2297 H            1 1VU201   0.0000
    58 H10         19.3818     9.4774   -76.0716 H            1 1VU201   0.0000
    59 H11         18.3987    10.2861   -75.0488 H            1 1VU201   0.0000
    60 H12         17.4766    11.0913   -71.7636 H            1 1VU201   0.0000
    61 H13         18.2331    12.3285   -71.0128 H            1 1VU201   0.0000
    62 H14         14.9520    12.1910   -69.4973 H            1 1VU201   0.0000
    63 H15         15.9378    13.1505   -70.3772 H            1 1VU201   0.0000
    64 H16         15.2535    11.8357   -71.0624 H            1 1VU201   0.0000
    65 H17         15.7406     9.9054   -68.8041 H            1 1VU201   0.0000
    66 H18         16.0384     9.5313   -70.3655 H            1 1VU201   0.0000
    67 H19         17.2248     9.3925   -69.2520 H            1 1VU201   0.0000
    68 H20         18.1084    11.2665   -68.1436 H            1 1VU201   0.0000
    69 H21         19.2320    12.9431   -68.6805 H            1 1VU201   0.0000
    70 H22         17.0516    14.3093   -67.8181 H            1 1VU201   0.0000
    71 H23         15.6759    15.1900   -66.1765 H            1 1VU201   0.0000
    72 H24         15.0133    13.7267   -65.8824 H            1 1VU201   0.0000
    73 H25         13.7308    13.8652   -67.8337 H            1 1VU201   0.0000
    74 H26         14.4716    15.2569   -68.2593 H            1 1VU201   0.0000
    75 H27         12.7869    16.6116   -68.3873 H            1 1VU201   0.0000
    76 H28         11.2504    18.0415   -67.5308 H            1 1VU201   0.0000
    77 H29         11.8088    17.7282   -66.0286 H            1 1VU201   0.0000
    78 H30          9.6146    17.1065   -65.9351 H            1 1VU201   0.0000
    79 H31         10.4139    15.6923   -66.1017 H            1 1VU201   0.0000
    80 H32          8.6830    15.3222   -67.8824 H            1 1VU201   0.0000
@<TRIPOS>BOND
     1    1    2      ar
     2    2    3      ar
     3    2    4      ar
     4    2    5       1
     5    5    6       1
     6    6    7       1
     7    6   21       1
     8    7    8       1
     9    7    9       1
    10    9   10       1
    11    9   20       1
    12   10   11       1
    13   10   19       1
    14   11   12      ar
    15   11   17      ar
    16   12   13      ar
    17   13   14      ar
    18   14   15      ar
    19   15   16       1
    20   15   17      ar
    21   17   18       1
    22   18   19       2
    23   20   21       1
    24   21   22       1
    25   22   23       1
    26   23   24       1
    27   24   25      ar
    28   24   26      ar
    29   24   27       1
    30   27   28       1
    31   28   29      ar
    32   28   30      ar
    33   28   31       1
    34   31   32       1
    35   32   33       1
    36   33   34       1
    37   33   35       1
    38   33   36       1
    39   36   37       1
    40   36   38       1
    41   38   39       2
    42   38   40      am
    43   40   41       1
    44   41   42       1
    45   42   43       1
    46   43   44       2
    47   43   45      am
    48   45   46       1
    49   46   47       1
    50   47   48       1
    51   48   80       1
    52   47   79       1
    53    6   49       1
    54    7   50       1
    55    8   51       1
    56    9   52       1
    57   13   53       1
    58   16   54       1
    59   16   55       1
    60   19   56       1
    61   21   57       1
    62   22   58       1
    63   22   59       1
    64   47   78       1
    65   46   77       1
    66   32   60       1
    67   32   61       1
    68   34   62       1
    69   34   63       1
    70   34   64       1
    71   35   65       1
    72   35   66       1
    73   35   67       1
    74   36   68       1
    75   37   69       1
    76   40   70       1
    77   41   71       1
    78   41   72       1
    79   42   73       1
    80   42   74       1
    81   45   75       1
    82   46   76       1
@<TRIPOS>SUBSTRUCTURE
     1 1VU201      1 GROUP             4 E     1VU     0 **** 1VU E 201
