@<TRIPOS>MOLECULE
1xi9_PLP_2_ligand
   25    25     1     0     0
SMALL
NO_CHARGES


@<TRIPOS>ATOM
     1 N1          72.8090   114.4740    26.2210 N.2          1 PLP501   0.0000
     2 C2          71.6990   113.9850    25.5570 C.2          1 PLP501   0.0000
     3 C2A         71.1010   114.7930    24.4580 C.3          1 PLP501   0.0000
     4 C3          71.1430   112.7510    25.9100 C.2          1 PLP501   0.0000
     5 O3          70.0470   112.2550    25.2410 O.2          1 PLP501   0.0000
     6 C4          71.6980   112.0010    26.9570 C.3          1 PLP501   0.0000
     7 C4A         70.6870   111.2930    27.8260 C.3          1 PLP501   0.0000
     8 C5          72.8380   112.4940    27.6130 C.2          1 PLP501   0.0000
     9 C6          73.3780   113.7370    27.2480 C.2          1 PLP501   0.0000
    10 C5A         73.6670   111.5550    28.4730 C.3          1 PLP501   0.0000
    11 O4P         73.3370   111.8200    29.8220 O.3          1 PLP501   0.0000
    12 P           74.1540   111.2310    31.0860 P.3          1 PLP501   0.0000
    13 O1P         73.5780   109.8760    31.4350 O.co2        1 PLP501   0.0000
    14 O2P         73.9280   112.1560    32.2470 O.co2        1 PLP501  -1.0000
    15 O3P         75.6420   111.1560    30.7940 O.co2        1 PLP501  -1.0000
    16 H2A1        70.3117   114.3091    24.0800 H            1 PLP501   0.0000
    17 H2A2        70.8081   115.6791    24.8171 H            1 PLP501   0.0000
    18 H2A3        71.7817   114.9332    23.7390 H            1 PLP501   0.0000
    19 H4          72.0876   111.2304    26.4527 H            1 PLP501   0.0000
    20 H4A1        71.1625   110.7844    28.5438 H            1 PLP501   0.0000
    21 H4A2        70.0764   111.9662    28.2431 H            1 PLP501   0.0000
    22 H4A3        70.1523   110.6594    27.2668 H            1 PLP501   0.0000
    23 H8          74.1777   114.0930    27.7315 H            1 PLP501   0.0000
    24 H5A1        74.6412   111.7210    28.3199 H            1 PLP501   0.0000
    25 H5A2        73.4514   110.6048    28.2481 H            1 PLP501   0.0000
@<TRIPOS>BOND
     1    1    2       2
     2    1    9       1
     3    2    3       1
     4    2    4       1
     5    4    5       2
     6    4    6       1
     7    6    7       1
     8    6    8       1
     9    8    9       2
    10    8   10       1
    11   10   11       1
    12   11   12       1
    13   12   13      ar
    14   12   14      ar
    15   12   15      ar
    16    3   16       1
    17    3   17       1
    18    3   18       1
    19    6   19       1
    20    7   20       1
    21    7   21       1
    22    7   22       1
    23    9   23       1
    24   10   24       1
    25   10   25       1
@<TRIPOS>SUBSTRUCTURE
     1 PLP501      1 GROUP             4 B     PLP     0 **** PLP B 501
