@<TRIPOS>MOLECULE
1um8_ADP_1_ligand
   39    41     1     0     0
SMALL
NO_CHARGES


@<TRIPOS>ATOM
     1 PB          20.9710    48.1160    21.8360 P.3          1 ADP487   0.0000
     2 O1B         22.1210    47.8420    22.7400 O.co2        1 ADP487   0.0000
     3 O2B         19.5780    47.6680    22.5170 O.co2        1 ADP487  -1.0000
     4 O3B         20.9330    49.5570    21.4730 O.co2        1 ADP487  -1.0000
     5 PA          20.1370    47.1780    19.2900 P.3          1 ADP487   0.0000
     6 O1A         18.7460    47.1930    19.7390 O.co2        1 ADP487   0.0000
     7 O2A         20.3880    48.3190    18.4070 O.co2        1 ADP487  -1.0000
     8 O3A         21.0720    47.2390    20.5350 O.3          1 ADP487   0.0000
     9 O5'         20.3850    45.8830    18.4300 O.3          1 ADP487   0.0000
    10 C5'         21.2940    44.8030    18.5960 C.3          1 ADP487   0.0000
    11 C4'         20.9800    43.8600    17.3780 C.3          1 ADP487   0.0000
    12 O4'         20.5710    42.5830    17.9240 O.3          1 ADP487   0.0000
    13 C3'         19.7920    44.2770    16.4810 C.3          1 ADP487   0.0000
    14 O3'         20.1880    45.0300    15.3280 O.3          1 ADP487   0.0000
    15 C2'         19.0870    42.9760    16.1350 C.3          1 ADP487   0.0000
    16 O2'         19.5950    42.3570    14.9430 O.3          1 ADP487   0.0000
    17 C1'         19.2660    42.1810    17.4130 C.3          1 ADP487   0.0000
    18 N9          18.2070    42.4530    18.4850 N.pl3        1 ADP487   0.0000
    19 C8          18.4210    43.0690    19.6830 C.2          1 ADP487   0.0000
    20 N7          17.2910    43.1300    20.3680 N.2          1 ADP487   0.0000
    21 C5          16.3450    42.5730    19.6580 C.ar         1 ADP487   0.0000
    22 C6          14.9820    42.3370    19.8360 C.ar         1 ADP487   0.0000
    23 N6          14.3820    42.7290    20.9600 N.pl3        1 ADP487   0.0000
    24 N1          14.2500    41.7060    18.8600 N.ar         1 ADP487   0.0000
    25 C2          14.8170    41.2870    17.6910 C.ar         1 ADP487   0.0000
    26 N3          16.1470    41.5060    17.4980 N.ar         1 ADP487   0.0000
    27 C4          16.9290    42.1320    18.4350 C.ar         1 ADP487   0.0000
    28 H5'1        21.1327    44.3313    19.4629 H            1 ADP487   0.0000
    29 H5'2        22.2401    45.1251    18.5628 H            1 ADP487   0.0000
    30 H4'         21.8013    43.7425    16.8198 H            1 ADP487   0.0000
    31 H3'         19.1683    44.8383    17.0250 H            1 ADP487   0.0000
    32 H5          21.1060    44.7507    15.0466 H            1 ADP487   0.0000
    33 H2'         18.1129    43.1635    16.0083 H            1 ADP487   0.0000
    34 H7          19.4912    41.3648    15.0124 H            1 ADP487   0.0000
    35 H1'         19.2791    41.2044    17.1984 H            1 ADP487   0.0000
    36 H9          19.3022    43.4224    19.9971 H            1 ADP487   0.0000
    37 H10         13.4048    42.5609    21.0900 H            1 ADP487   0.0000
    38 H11         14.9091    43.1911    21.6732 H            1 ADP487   0.0000
    39 H12         14.2677    40.8293    16.9918 H            1 ADP487   0.0000
@<TRIPOS>BOND
     1    1    2      ar
     2    1    3      ar
     3    1    4      ar
     4    1    8       1
     5    5    6      ar
     6    5    7      ar
     7    5    8       1
     8    5    9       1
     9    9   10       1
    10   10   11       1
    11   11   12       1
    12   11   13       1
    13   12   17       1
    14   13   14       1
    15   13   15       1
    16   15   16       1
    17   15   17       1
    18   17   18       1
    19   18   19       1
    20   18   27       1
    21   19   20       2
    22   20   21       1
    23   21   22      ar
    24   21   27      ar
    25   22   23       1
    26   22   24      ar
    27   24   25      ar
    28   25   26      ar
    29   26   27      ar
    30   25   39       1
    31   23   38       1
    32   23   37       1
    33   10   28       1
    34   10   29       1
    35   11   30       1
    36   13   31       1
    37   14   32       1
    38   15   33       1
    39   16   34       1
    40   17   35       1
    41   19   36       1
@<TRIPOS>SUBSTRUCTURE
     1 ADP487      1 GROUP             4 A     ADP     0 **** ADP A 487
