@<TRIPOS>MOLECULE
1pvs_7HP_2_ligand
   14    15     1     0     0
SMALL
NO_CHARGES


@<TRIPOS>ATOM
     1 C9          56.4650    65.5210    22.7910 C.2          1 7HP700   0.0000
     2 C4          56.6620    66.8090    22.2970 C.2          1 7HP700   0.0000
     3 N3          57.8570    67.3730    21.9210 N.2          1 7HP700   0.0000
     4 C2          57.6950    68.6780    21.4740 C.2          1 7HP700   0.0000
     5 N1          56.4490    69.3060    21.4320 N.pl3        1 7HP700   0.0000
     6 C6          55.2410    68.7190    21.8180 C.2          1 7HP700   0.0000
     7 O6          54.2080    69.3480    21.7430 O.2          1 7HP700   0.0000
     8 C5          55.4060    67.4070    22.2700 C.2          1 7HP700   0.0000
     9 N7          54.4960    66.4880    22.7330 N.pl3        1 7HP700   0.0000
    10 N8          55.1750    65.4200    23.0170 N.2          1 7HP700   0.0000
    11 H1          57.1612    64.8192    22.9421 H            1 7HP700   0.0000
    12 H2          58.5009    69.1866    21.1710 H            1 7HP700   0.0000
    13 H3          53.5092    66.6165    22.8313 H            1 7HP700   0.0000
    14 H4          56.4185    70.2488    21.1000 H            1 7HP700   0.0000
@<TRIPOS>BOND
     1    1    2       1
     2    1   10       2
     3    2    3       1
     4    2    8       2
     5    3    4       2
     6    4    5       1
     7    5    6       1
     8    6    7       2
     9    6    8       1
    10    8    9       1
    11    9   10       1
    12    1   11       1
    13    9   13       1
    14    4   12       1
    15    5   14       1
@<TRIPOS>SUBSTRUCTURE
     1 7HP700      1 GROUP             4 B     7HP     0 **** 7HP B 700
