@<TRIPOS>MOLECULE
3p5p_A3C_1_ligand
   64    65     1     0     0
SMALL
NO_CHARGES


@<TRIPOS>ATOM
     1 C01         32.7400    -9.4190   -16.9000 C.3          1 A3C911   0.0000
     2 O01         33.7600    -9.9660   -16.0980 O.3          1 A3C911   0.0000
     3 C02         31.4220   -10.1960   -16.8910 C.3          1 A3C911   0.0000
     4 P02         34.8690   -10.9510   -16.7460 P.3          1 A3C911   0.0000
     5 N03         31.1750   -10.9530   -15.6830 N.4          1 A3C911   1.0000
     6 O03         34.3890   -12.4720   -16.5260 O.3          1 A3C911   0.0000
     7 P04         34.1320   -12.9880   -15.0170 P.3          1 A3C911   0.0000
     8 O05         34.0190   -14.4670   -15.0680 O.co2        1 A3C911   0.0000
     9 O06         36.2120   -10.6440   -16.1710 O.co2        1 A3C911   0.0000
    10 O07         34.9420   -10.6960   -18.1890 O.co2        1 A3C911  -1.0000
    11 O08         32.9190   -12.4050   -14.3910 O.co2        1 A3C911  -1.0000
    12 O09         35.2640   -12.7750   -14.0730 O.co2        1 A3C911  -1.0000
    13 C11         30.6650   -10.0330   -14.6840 C.3          1 A3C911   0.0000
    14 C12         29.5130    -9.1550   -15.2010 C.3          1 A3C911   0.0000
    15 C13         30.2510   -12.0450   -15.9070 C.3          1 A3C911   0.0000
    16 C21         28.5300    -8.7420   -14.0810 C.3          1 A3C911   0.0000
    17 C22         29.2740    -7.8630   -13.1040 C.2          1 A3C911   0.0000
    18 C23         28.3680    -7.6150   -11.9450 C.3          1 A3C911   0.0000
    19 C24         26.9460    -7.1400   -12.2530 C.3          1 A3C911   0.0000
    20 C25         26.2640    -8.0690   -13.2640 C.3          1 A3C911   0.0000
    21 C26         24.7910    -7.6810   -13.4780 C.3          1 A3C911   0.0000
    22 C27         24.2730    -8.6450   -14.5460 C.3          1 A3C911   0.0000
    23 C28         25.1150    -8.6210   -15.8170 C.3          1 A3C911   0.0000
    24 C29         26.5460    -9.0850   -15.5460 C.3          1 A3C911   0.0000
    25 C30         27.1670    -8.1570   -14.5020 C.3          1 A3C911   0.0000
    26 C31         30.4680    -7.2600   -13.0450 C.2          1 A3C911   0.0000
    27 C32         24.6170    -6.2430   -13.9840 C.3          1 A3C911   0.0000
    28 C33         23.9550    -7.8990   -12.2160 C.3          1 A3C911   0.0000
    29 C34         27.5000    -6.8910   -15.2940 C.3          1 A3C911   0.0000
    30 H1          33.0723    -9.3832   -17.8425 H            1 A3C911   0.0000
    31 H2          32.5551    -8.4911   -16.5762 H            1 A3C911   0.0000
    32 H3          31.4307   -10.8332   -17.6616 H            1 A3C911   0.0000
    33 H4          30.6742    -9.5423   -17.0074 H            1 A3C911   0.0000
    34 H5          31.4120    -9.4366   -14.3903 H            1 A3C911   0.0000
    35 H6          30.3348   -10.5630   -13.9029 H            1 A3C911   0.0000
    36 H7          29.0087    -9.6659   -15.8972 H            1 A3C911   0.0000
    37 H8          29.8992    -8.3278   -15.6090 H            1 A3C911   0.0000
    38 H9          30.1076   -12.5413   -15.0508 H            1 A3C911   0.0000
    39 H10         29.3779   -11.6815   -16.2318 H            1 A3C911   0.0000
    40 H11         30.6294   -12.6664   -16.5931 H            1 A3C911   0.0000
    41 H12         28.3204    -9.5829   -13.5821 H            1 A3C911   0.0000
    42 H13         28.7991    -6.9191   -11.3706 H            1 A3C911   0.0000
    43 H14         28.2943    -8.4709   -11.4331 H            1 A3C911   0.0000
    44 H15         26.9849    -6.2157   -12.6326 H            1 A3C911   0.0000
    45 H16         26.4137    -7.1306   -11.4065 H            1 A3C911   0.0000
    46 H17         26.2593    -8.9802   -12.8522 H            1 A3C911   0.0000
    47 H18         23.3344    -8.3904   -14.7789 H            1 A3C911   0.0000
    48 H19         24.2838    -9.5725   -14.1724 H            1 A3C911   0.0000
    49 H20         25.1378    -7.6875   -16.1747 H            1 A3C911   0.0000
    50 H21         24.6990    -9.2275   -16.4945 H            1 A3C911   0.0000
    51 H22         27.0789    -9.0464   -16.3913 H            1 A3C911   0.0000
    52 H23         26.5367   -10.0233   -15.2004 H            1 A3C911   0.0000
    53 H24         30.7133    -6.7139   -12.2440 H            1 A3C911   0.0000
    54 H25         31.1145    -7.3558   -13.8019 H            1 A3C911   0.0000
    55 H26         23.6437    -6.0475   -14.1044 H            1 A3C911   0.0000
    56 H27         25.0051    -5.6060   -13.3179 H            1 A3C911   0.0000
    57 H28         25.0888    -6.1383   -14.8595 H            1 A3C911   0.0000
    58 H29         23.0068    -7.6363   -12.3948 H            1 A3C911   0.0000
    59 H30         23.9901    -8.8638   -11.9555 H            1 A3C911   0.0000
    60 H31         24.3215    -7.3395   -11.4726 H            1 A3C911   0.0000
    61 H32         26.6528    -6.4570   -15.6004 H            1 A3C911   0.0000
    62 H33         28.0074    -6.2567   -14.7107 H            1 A3C911   0.0000
    63 H34         28.0574    -7.1318   -16.0885 H            1 A3C911   0.0000
    64 H35         32.0426   -11.3294   -15.3582 H            1 A3C911   0.0000
@<TRIPOS>BOND
     1    1    2       1
     2    1    3       1
     3    2    4       1
     4    3    5       1
     5    4    6       1
     6    4    9      ar
     7    4   10      ar
     8    5   13       1
     9    5   15       1
    10    6    7       1
    11    7    8      ar
    12    7   11      ar
    13    7   12      ar
    14   13   14       1
    15   14   16       1
    16   16   17       1
    17   16   25       1
    18   17   18       1
    19   17   26       2
    20   18   19       1
    21   19   20       1
    22   20   21       1
    23   20   25       1
    24   21   22       1
    25   21   27       1
    26   21   28       1
    27   22   23       1
    28   23   24       1
    29   24   25       1
    30   25   29       1
    31    1   30       1
    32    1   31       1
    33    3   32       1
    34    3   33       1
    35    5   64       1
    36   29   63       1
    37   29   62       1
    38   13   34       1
    39   13   35       1
    40   14   36       1
    41   14   37       1
    42   15   38       1
    43   15   39       1
    44   15   40       1
    45   16   41       1
    46   18   42       1
    47   18   43       1
    48   19   44       1
    49   19   45       1
    50   20   46       1
    51   22   47       1
    52   22   48       1
    53   23   49       1
    54   23   50       1
    55   24   51       1
    56   24   52       1
    57   26   53       1
    58   26   54       1
    59   27   55       1
    60   27   56       1
    61   27   57       1
    62   28   58       1
    63   28   59       1
    64   28   60       1
    65   29   61       1
@<TRIPOS>SUBSTRUCTURE
     1 A3C911      1 GROUP             4 A     A3C     0 **** A3C A 911
