@<TRIPOS>MOLECULE
2zb3_NDP_1_ligand
   73    77     1     0     0
SMALL
NO_CHARGES


@<TRIPOS>ATOM
     1 PA          19.0930    -1.9950   -71.8080 P.3          1 NDP900   0.0000
     2 O1A         20.0400    -2.8490   -70.9530 O.co2        1 NDP900   0.0000
     3 O2A         18.4530    -0.8280   -71.1750 O.co2        1 NDP900  -1.0000
     4 O5B         18.0790    -3.0070   -72.4680 O.3          1 NDP900   0.0000
     5 C5B         16.8360    -2.5870   -73.1300 C.3          1 NDP900   0.0000
     6 C4B         15.7010    -2.2630   -72.1720 C.3          1 NDP900   0.0000
     7 O4B         14.8070    -1.2350   -72.7960 O.3          1 NDP900   0.0000
     8 C3B         14.7720    -3.4390   -71.8750 C.3          1 NDP900   0.0000
     9 O3B         15.3230    -4.2780   -70.8610 O.3          1 NDP900   0.0000
    10 C2B         13.4980    -2.7420   -71.4180 C.3          1 NDP900   0.0000
    11 O2B         13.3810    -2.6030   -69.9990 O.3          1 NDP900   0.0000
    12 C1B         13.5280    -1.3620   -72.1290 C.3          1 NDP900   0.0000
    13 N9A         12.4810    -1.1740   -73.1440 N.pl3        1 NDP900   0.0000
    14 C8A         12.2580    -1.8710   -74.2780 C.2          1 NDP900   0.0000
    15 N7A         11.1970    -1.4430   -74.9950 N.2          1 NDP900   0.0000
    16 C5A         10.7330    -0.4120   -74.2570 C.ar         1 NDP900   0.0000
    17 C6A          9.6470     0.4490   -74.4510 C.ar         1 NDP900   0.0000
    18 N6A          8.8170     0.3740   -75.5100 N.pl3        1 NDP900   0.0000
    19 N1A          9.4690     1.3880   -73.4870 N.ar         1 NDP900   0.0000
    20 C2A         10.2480     1.5200   -72.4240 C.ar         1 NDP900   0.0000
    21 N3A         11.3090     0.7520   -72.1440 N.ar         1 NDP900   0.0000
    22 C4A         11.5080    -0.2230   -73.1140 C.ar         1 NDP900   0.0000
    23 O3          19.9750    -1.4740   -72.9800 O.3          1 NDP900   0.0000
    24 PN          21.2290    -0.5400   -73.0190 P.3          1 NDP900   0.0000
    25 O1N         21.6590    -0.1710   -71.6450 O.co2        1 NDP900   0.0000
    26 O2N         22.1730    -1.2380   -73.9130 O.co2        1 NDP900  -1.0000
    27 O5D         20.7190     0.7920   -73.8200 O.3          1 NDP900   0.0000
    28 C5D         19.6630     1.6630   -73.3100 C.3          1 NDP900   0.0000
    29 C4D         19.5240     2.8680   -74.2070 C.3          1 NDP900   0.0000
    30 O4D         20.8340     3.5300   -74.2880 O.3          1 NDP900   0.0000
    31 C3D         19.1240     2.5560   -75.6570 C.3          1 NDP900   0.0000
    32 O3D         18.1010     3.3640   -76.1640 O.3          1 NDP900   0.0000
    33 C2D         20.4520     2.6530   -76.3870 C.3          1 NDP900   0.0000
    34 O2D         20.1830     2.9660   -77.7520 O.3          1 NDP900   0.0000
    35 C1D         21.1120     3.7770   -75.6300 C.3          1 NDP900   0.0000
    36 N1N         22.5780     3.8180   -75.7800 N.ar         1 NDP900   1.0000
    37 C2N         23.1360     4.9860   -76.2020 C.ar         1 NDP900   0.0000
    38 C3N         24.4810     5.1360   -76.3750 C.ar         1 NDP900   0.0000
    39 C7N         25.0560     6.4520   -76.8090 C.2          1 NDP900   0.0000
    40 O7N         26.2400     6.5340   -77.0960 O.2          1 NDP900   0.0000
    41 N7N         24.1760     7.5020   -76.7750 N.am         1 NDP900   0.0000
    42 C4N         25.3500     4.0350   -76.1160 C.ar         1 NDP900   0.0000
    43 C5N         24.7630     2.8040   -75.6750 C.ar         1 NDP900   0.0000
    44 C6N         23.3990     2.6900   -75.5010 C.ar         1 NDP900   0.0000
    45 P2B         11.9220    -2.4850   -69.2490 P.3          1 NDP900   0.0000
    46 O1X         12.1340    -1.4390   -68.1900 O.co2        1 NDP900   0.0000
    47 O2X         10.9640    -2.1430   -70.3770 O.co2        1 NDP900  -1.0000
    48 O3X         11.5900    -3.8560   -68.6940 O.co2        1 NDP900  -1.0000
    49 H5B1        16.5363    -3.3261   -73.7333 H            1 NDP900   0.0000
    50 H5B2        17.0303    -1.7708   -73.6740 H            1 NDP900   0.0000
    51 H4B         16.0757    -1.9068   -71.3160 H            1 NDP900   0.0000
    52 H3B         14.6008    -3.9660   -72.7075 H            1 NDP900   0.0000
    53 H5          15.8883    -4.9857   -71.2847 H            1 NDP900   0.0000
    54 H2B         12.7113    -3.2591   -71.7552 H            1 NDP900   0.0000
    55 H1B         13.4472    -0.6405   -71.4414 H            1 NDP900   0.0000
    56 H8A         12.8304    -2.6398   -74.5632 H            1 NDP900   0.0000
    57 H6A1         8.0563     1.0175   -75.5957 H            1 NDP900   0.0000
    58 H6A2         8.9617    -0.3251   -76.2102 H            1 NDP900   0.0000
    59 H2A         10.0263     2.2514   -71.7791 H            1 NDP900   0.0000
    60 H5D1        19.8961     1.9620   -72.3847 H            1 NDP900   0.0000
    61 H5D2        18.7982     1.1612   -73.2903 H            1 NDP900   0.0000
    62 H4D         18.8587     3.5002   -73.8098 H            1 NDP900   0.0000
    63 H3D         18.8169     1.6051   -75.6965 H            1 NDP900   0.0000
    64 H16         17.4976     3.6453   -75.4178 H            1 NDP900   0.0000
    65 H2D         20.9743     1.8042   -76.3051 H            1 NDP900   0.0000
    66 H18         20.9430     3.4956   -78.1286 H            1 NDP900   0.0000
    67 H1D         20.7159     4.6530   -75.9052 H            1 NDP900   0.0000
    68 H2N         22.5370     5.7638   -76.3925 H            1 NDP900   0.0000
    69 H7N1        24.4769     8.4156   -77.0484 H            1 NDP900   0.0000
    70 H7N2        23.2330     7.3546   -76.4768 H            1 NDP900   0.0000
    71 H4N         26.3389     4.1194   -76.2384 H            1 NDP900   0.0000
    72 H5N         25.3507     2.0162   -75.4907 H            1 NDP900   0.0000
    73 H6N         22.9954     1.8314   -75.1850 H            1 NDP900   0.0000
@<TRIPOS>BOND
     1    1    2      ar
     2    1    3      ar
     3    1    4       1
     4    1   23       1
     5    4    5       1
     6    5    6       1
     7    6    7       1
     8    6    8       1
     9    7   12       1
    10    8    9       1
    11    8   10       1
    12   10   11       1
    13   10   12       1
    14   11   45       1
    15   12   13       1
    16   13   14       1
    17   13   22       1
    18   14   15       2
    19   15   16       1
    20   16   17      ar
    21   16   22      ar
    22   17   18       1
    23   17   19      ar
    24   19   20      ar
    25   20   21      ar
    26   21   22      ar
    27   23   24       1
    28   24   25      ar
    29   24   26      ar
    30   24   27       1
    31   27   28       1
    32   28   29       1
    33   29   30       1
    34   29   31       1
    35   30   35       1
    36   31   32       1
    37   31   33       1
    38   33   34       1
    39   33   35       1
    40   35   36       1
    41   36   37      ar
    42   36   44      ar
    43   37   38      ar
    44   38   39       1
    45   38   42      ar
    46   39   40       2
    47   39   41      am
    48   42   43      ar
    49   43   44      ar
    50   45   46      ar
    51   45   47      ar
    52   45   48      ar
    53   43   72       1
    54    5   49       1
    55    5   50       1
    56    6   51       1
    57    8   52       1
    58    9   53       1
    59   10   54       1
    60   12   55       1
    61   14   56       1
    62   18   57       1
    63   18   58       1
    64   20   59       1
    65   44   73       1
    66   28   60       1
    67   28   61       1
    68   29   62       1
    69   31   63       1
    70   32   64       1
    71   33   65       1
    72   34   66       1
    73   35   67       1
    74   37   68       1
    75   41   69       1
    76   41   70       1
    77   42   71       1
@<TRIPOS>SUBSTRUCTURE
     1 NDP900      1 GROUP             4 A     NDP     0 **** NDP A 900
