@<TRIPOS>MOLECULE
2oap_ANP_2_ligand
   44    46     1     0     0
SMALL
NO_CHARGES


@<TRIPOS>ATOM
     1 PG           0.9160    44.8360   179.9380 P.3          1 ANP513   0.0000
     2 O1G          1.9330    45.8880   179.5010 O.co2        1 ANP513   0.0000
     3 O2G          1.2650    44.0410   181.1570 O.co2        1 ANP513  -1.0000
     4 O3G         -0.5050    45.3980   179.9790 O.co2        1 ANP513  -1.0000
     5 PB           1.9460    42.7370   178.1550 P.3          1 ANP513   0.0000
     6 O1B          3.2970    43.4020   178.2250 O.co2        1 ANP513   0.0000
     7 O2B          1.4540    42.1980   176.8520 O.co2        1 ANP513  -1.0000
     8 N3B          0.8580    43.7410   178.7590 N.3          1 ANP513   0.0000
     9 PA           2.8480    40.2220   179.3610 P.3          1 ANP513   0.0000
    10 O1A          3.6330    39.9450   178.1050 O.co2        1 ANP513   0.0000
    11 O2A          3.6850    40.4060   180.6200 O.co2        1 ANP513  -1.0000
    12 O3A          2.0070    41.5910   179.2840 O.3          1 ANP513   0.0000
    13 O5'          1.8360    39.0330   179.7490 O.3          1 ANP513   0.0000
    14 C5'          0.7000    38.5970   179.0330 C.3          1 ANP513   0.0000
    15 C4'          0.1600    37.2620   179.6470 C.3          1 ANP513   0.0000
    16 O4'          0.2740    36.3910   178.4990 O.3          1 ANP513   0.0000
    17 C3'          1.0220    36.6050   180.7350 C.3          1 ANP513   0.0000
    18 O3'          0.1960    35.8630   181.6400 O.3          1 ANP513   0.0000
    19 C2'          1.9540    35.6870   179.9860 C.3          1 ANP513   0.0000
    20 O2'          2.3560    34.5730   180.7590 O.3          1 ANP513   0.0000
    21 C1'          1.1480    35.3010   178.7510 C.3          1 ANP513   0.0000
    22 N9           1.9400    35.1660   177.5230 N.pl3        1 ANP513   0.0000
    23 C8           2.8040    36.0900   176.9830 C.2          1 ANP513   0.0000
    24 N7           3.3730    35.7140   175.8700 N.2          1 ANP513   0.0000
    25 C5           2.8530    34.4570   175.6530 C.ar         1 ANP513   0.0000
    26 C6           3.0520    33.5070   174.6180 C.ar         1 ANP513   0.0000
    27 N6           3.8680    33.7190   173.5800 N.pl3        1 ANP513   0.0000
    28 N1           2.3680    32.3130   174.6890 N.ar         1 ANP513   0.0000
    29 C2           1.5380    32.0960   175.7360 C.ar         1 ANP513   0.0000
    30 N3           1.2710    32.9280   176.7720 N.ar         1 ANP513   0.0000
    31 C4           1.9660    34.0980   176.6660 C.ar         1 ANP513   0.0000
    32 H3B          0.1159    43.1340   179.0434 H            1 ANP513   0.0000
    33 H5'1         0.9497    38.4446   178.0767 H            1 ANP513   0.0000
    34 H5'2        -0.0124    39.2970   179.0840 H            1 ANP513   0.0000
    35 H4'         -0.7911    37.3545   179.9416 H            1 ANP513   0.0000
    36 H3'          1.5434    37.2994   181.2310 H            1 ANP513   0.0000
    37 H6          -0.0934    36.4571   182.3906 H            1 ANP513   0.0000
    38 H2'          2.7641    36.2004   179.7028 H            1 ANP513   0.0000
    39 H8           3.3511    34.5776   180.8580 H            1 ANP513   0.0000
    40 H1'          0.6247    34.4663   178.9225 H            1 ANP513   0.0000
    41 H10          2.9817    36.9774   177.4083 H            1 ANP513   0.0000
    42 H11          3.9740    33.0170   172.8758 H            1 ANP513   0.0000
    43 H12          4.3722    34.5796   173.5080 H            1 ANP513   0.0000
    44 H13          1.0645    31.2152   175.7463 H            1 ANP513   0.0000
@<TRIPOS>BOND
     1    1    2      ar
     2    1    3      ar
     3    1    4      ar
     4    1    8       1
     5    5    6      ar
     6    5    7      ar
     7    5    8       1
     8    5   12       1
     9    9   10      ar
    10    9   11      ar
    11    9   12       1
    12    9   13       1
    13   13   14       1
    14   14   15       1
    15   15   16       1
    16   15   17       1
    17   16   21       1
    18   17   18       1
    19   17   19       1
    20   19   20       1
    21   19   21       1
    22   21   22       1
    23   22   23       1
    24   22   31       1
    25   23   24       2
    26   24   25       1
    27   25   26      ar
    28   25   31      ar
    29   26   27       1
    30   26   28      ar
    31   28   29      ar
    32   29   30      ar
    33   30   31      ar
    34   29   44       1
    35   27   43       1
    36   27   42       1
    37    8   32       1
    38   23   41       1
    39   14   33       1
    40   14   34       1
    41   15   35       1
    42   17   36       1
    43   18   37       1
    44   19   38       1
    45   20   39       1
    46   21   40       1
@<TRIPOS>SUBSTRUCTURE
     1 ANP513      1 GROUP             4 2     ANP     0 **** ANP 2 513
