@<TRIPOS>MOLECULE
1pn9_GTX_1_ligand
   54    53     1     0     0
SMALL
NO_CHARGES


@<TRIPOS>ATOM
     1 N1          47.9140    48.8460    15.8130 N.4          1 GTX301   1.0000
     2 CA1         48.4510    47.7430    14.9760 C.3          1 GTX301   0.0000
     3 C1          48.1910    48.0010    13.4920 C.2          1 GTX301   0.0000
     4 O11         48.8940    47.3870    12.6560 O.co2        1 GTX301   0.0000
     5 O12         47.2970    48.8170    13.1850 O.co2        1 GTX301  -1.0000
     6 CB1         47.8170    46.4130    15.3960 C.3          1 GTX301   0.0000
     7 CG1         48.3280    45.2160    14.6180 C.3          1 GTX301   0.0000
     8 CD1         47.9290    43.8980    15.2470 C.2          1 GTX301   0.0000
     9 OE1         47.1120    43.8560    16.1650 O.2          1 GTX301   0.0000
    10 N2          48.5060    42.8130    14.7450 N.am         1 GTX301   0.0000
    11 CA2         48.2230    41.4920    15.2680 C.3          1 GTX301   0.0000
    12 C2          49.5230    40.7660    15.5800 C.2          1 GTX301   0.0000
    13 O2          50.4570    40.7590    14.7650 O.2          1 GTX301   0.0000
    14 CB2         47.4060    40.6920    14.2550 C.3          1 GTX301   0.0000
    15 SG2         45.8440    41.4760    13.8400 S.3          1 GTX301   0.0000
    16 C1S         44.7330    40.6150    14.9560 C.3          1 GTX301   0.0000
    17 C2S         43.8410    39.5990    14.2660 C.3          1 GTX301   0.0000
    18 C3S         44.6120    38.4010    13.7450 C.3          1 GTX301   0.0000
    19 C4S         43.6440    37.3530    13.2110 C.3          1 GTX301   0.0000
    20 C5S         44.3620    36.1140    12.6950 C.3          1 GTX301   0.0000
    21 C6S         44.9860    35.3290    13.8270 C.3          1 GTX301   0.0000
    22 N3          49.5610    40.1450    16.7550 N.am         1 GTX301   0.0000
    23 CA3         50.7000    39.3880    17.2720 C.3          1 GTX301   0.0000
    24 C3          51.6710    40.2310    18.0910 C.2          1 GTX301   0.0000
    25 O31         52.5800    39.6440    18.7240 O.co2        1 GTX301   0.0000
    26 O32         51.5360    41.4700    18.1050 O.co2        1 GTX301  -1.0000
    27 H1          48.0971    48.6525    16.7769 H            1 GTX301   0.0000
    28 H2          48.3561    49.7053    15.5557 H            1 GTX301   0.0000
    29 HA1         49.4387    47.6849    15.1210 H            1 GTX301   0.0000
    30 HB11        46.8285    46.4785    15.2597 H            1 GTX301   0.0000
    31 HB12        48.0106    46.2642    16.3657 H            1 GTX301   0.0000
    32 HG11        49.3261    45.2625    14.5782 H            1 GTX301   0.0000
    33 HG12        47.9553    45.2540    13.6908 H            1 GTX301   0.0000
    34 H8          49.1516    42.9099    13.9875 H            1 GTX301   0.0000
    35 HA2         47.6931    41.5841    16.1110 H            1 GTX301   0.0000
    36 HB21        47.2171    39.7886    14.6399 H            1 GTX301   0.0000
    37 HB22        47.9448    40.5919    13.4185 H            1 GTX301   0.0000
    38 H1S1        44.1508    41.2920    15.4063 H            1 GTX301   0.0000
    39 H1S2        45.2821    40.1383    15.6425 H            1 GTX301   0.0000
    40 H2S1        43.3843    40.0449    13.4962 H            1 GTX301   0.0000
    41 H2S2        43.1557    39.2786    14.9200 H            1 GTX301   0.0000
    42 H3S1        45.1518    38.0055    14.4881 H            1 GTX301   0.0000
    43 H3S2        45.2223    38.6941    13.0090 H            1 GTX301   0.0000
    44 H4S1        43.1164    37.7543    12.4623 H            1 GTX301   0.0000
    45 H4S2        43.0244    37.0823    13.9478 H            1 GTX301   0.0000
    46 H5S1        45.0805    36.3951    12.0588 H            1 GTX301   0.0000
    47 H5S2        43.7040    35.5311    12.2183 H            1 GTX301   0.0000
    48 H6S1        45.4492    34.5231    13.4582 H            1 GTX301   0.0000
    49 H6S2        45.6489    35.9044    14.3059 H            1 GTX301   0.0000
    50 H6S3        44.2725    35.0404    14.4655 H            1 GTX301   0.0000
    51 H25         48.7455    40.2001    17.3311 H            1 GTX301   0.0000
    52 HA31        51.1968    38.9959    16.4978 H            1 GTX301   0.0000
    53 HA32        50.3529    38.6516    17.8527 H            1 GTX301   0.0000
    54 H28         46.9273    48.9229    15.6700 H            1 GTX301   0.0000
@<TRIPOS>BOND
     1    1    2       1
     2    2    3       1
     3    2    6       1
     4    3    4      ar
     5    3    5      ar
     6    6    7       1
     7    7    8       1
     8    8    9       2
     9    8   10      am
    10   10   11       1
    11   11   12       1
    12   11   14       1
    13   12   13       2
    14   12   22      am
    15   14   15       1
    16   15   16       1
    17   16   17       1
    18   17   18       1
    19   18   19       1
    20   19   20       1
    21   20   21       1
    22   22   23       1
    23   23   24       1
    24   24   25      ar
    25   24   26      ar
    26    1   27       1
    27    1   28       1
    28    2   29       1
    29    1   54       1
    30    6   30       1
    31    6   31       1
    32    7   32       1
    33    7   33       1
    34   10   34       1
    35   11   35       1
    36   14   36       1
    37   14   37       1
    38   16   38       1
    39   16   39       1
    40   17   40       1
    41   17   41       1
    42   18   42       1
    43   18   43       1
    44   19   44       1
    45   19   45       1
    46   20   46       1
    47   20   47       1
    48   21   48       1
    49   21   49       1
    50   21   50       1
    51   22   51       1
    52   23   52       1
    53   23   53       1
@<TRIPOS>SUBSTRUCTURE
     1 GTX301      1 GROUP             4 A     GTX     0 **** GTX A 301
