@<TRIPOS>MOLECULE
3zzh_NLG_1_ligand
   22    21     1     0     0
SMALL
NO_CHARGES


@<TRIPOS>ATOM
     1 CA           5.7260     7.4160   -25.9980 C.3          1 NLG1361   0.0000
     2 C            7.1020     7.9740   -26.4040 C.2          1 NLG1361   0.0000
     3 OXT          7.5410     8.9760   -25.7990 O.co2        1 NLG1361   0.0000
     4 O            7.6790     7.3940   -27.3480 O.co2        1 NLG1361  -1.0000
     5 CB           4.6300     8.1190   -26.8430 C.3          1 NLG1361   0.0000
     6 CG           4.8800     8.0090   -28.3580 C.3          1 NLG1361   0.0000
     7 CD           4.4730     6.6490   -28.9430 C.2          1 NLG1361   0.0000
     8 OE1          4.8000     6.4510   -30.1290 O.co2        1 NLG1361   0.0000
     9 OE2          3.8590     5.8430   -28.2140 O.co2        1 NLG1361  -1.0000
    10 C7           5.9780     6.8830   -23.5870 C.2          1 NLG1361   0.0000
    11 C8           5.6710     7.2170   -22.2630 C.3          1 NLG1361   0.0000
    12 O7           6.7060     5.9100   -23.7800 O.2          1 NLG1361   0.0000
    13 N2           5.4740     7.6380   -24.5660 N.am         1 NLG1361   0.0000
    14 HA           5.7034     6.4340   -26.1854 H            1 NLG1361   0.0000
    15 HB1          4.6060     9.0869   -26.5929 H            1 NLG1361   0.0000
    16 HB2          3.7471     7.6987   -26.6338 H            1 NLG1361   0.0000
    17 HG1          5.8550     8.1496   -28.5299 H            1 NLG1361   0.0000
    18 HG2          4.3538     8.7233   -28.8193 H            1 NLG1361   0.0000
    19 H6           5.0763     8.0208   -22.2513 H            1 NLG1361   0.0000
    20 H7           5.2025     6.4494   -21.8256 H            1 NLG1361   0.0000
    21 H8           6.5148     7.4194   -21.7660 H            1 NLG1361   0.0000
    22 H9           4.8863     8.4051   -24.3087 H            1 NLG1361   0.0000
@<TRIPOS>BOND
     1    1    2       1
     2    1    5       1
     3    1   13       1
     4    2    3      ar
     5    2    4      ar
     6    5    6       1
     7    6    7       1
     8    7    8      ar
     9    7    9      ar
    10   10   11       1
    11   10   12       2
    12   10   13      am
    13    1   14       1
    14   13   22       1
    15    5   15       1
    16    5   16       1
    17    6   17       1
    18    6   18       1
    19   11   21       1
    20   11   19       1
    21   11   20       1
@<TRIPOS>SUBSTRUCTURE
     1 NLG1361     1 GROUP             4 A     NLG     0 **** NLG A1361
