@<TRIPOS>MOLECULE
3of3_DIH_9_ligand
   36    38     1     0     0
SMALL
NO_CHARGES


@<TRIPOS>ATOM
     1 O5'         34.1670    12.0960    76.7000 O.3          1 DIH500   0.0000
     2 C5'         35.2710    12.9520    76.3320 C.3          1 DIH500   0.0000
     3 C4'         36.3390    12.1010    75.6620 C.3          1 DIH500   0.0000
     4 C6'         35.7270    11.2860    74.5250 C.3          1 DIH500   0.0000
     5 C3'         37.3810    12.9980    75.0250 C.3          1 DIH500   0.0000
     6 O3'         38.5950    12.2560    75.0430 O.3          1 DIH500   0.0000
     7 C2'         36.9150    13.1140    73.5850 C.3          1 DIH500   0.0000
     8 N1'         36.4400    11.7540    73.3180 N.4          1 DIH500   1.0000
     9 C10         35.6140    11.7500    72.1010 C.3          1 DIH500   0.0000
    10 C9          34.1890    12.2260    72.2230 C.2          1 DIH500   0.0000
    11 C8          33.0480    11.4170    72.2500 C.2          1 DIH500   0.0000
    12 N7          31.9070    12.1750    72.3080 N.pl3        1 DIH500   0.0000
    13 C5          32.2230    13.4830    72.3430 C.2          1 DIH500   0.0000
    14 C6          31.4700    14.7370    72.3940 C.2          1 DIH500   0.0000
    15 O6          30.2170    14.6970    72.4520 O.2          1 DIH500   0.0000
    16 N1          32.1470    15.9590    72.3930 N.pl3        1 DIH500   0.0000
    17 C2          33.5660    15.9370    72.3350 C.2          1 DIH500   0.0000
    18 N3          34.3170    14.8260    72.2720 N.2          1 DIH500   0.0000
    19 C4          33.6770    13.6140    72.2630 C.2          1 DIH500   0.0000
    20 H5'         33.3364    12.4059    76.2374 H            1 DIH500   0.0000
    21 H5'1        35.6491    13.3854    77.1501 H            1 DIH500   0.0000
    22 H5'2        34.9543    13.6570    75.6975 H            1 DIH500   0.0000
    23 H4'         36.7676    11.4938    76.3311 H            1 DIH500   0.0000
    24 H6'1        34.7460    11.4646    74.4489 H            1 DIH500   0.0000
    25 H6'2        35.8776    10.3079    74.6689 H            1 DIH500   0.0000
    26 H3'         37.4609    13.8848    75.4802 H            1 DIH500   0.0000
    27 H8          39.3253    12.8016    74.6319 H            1 DIH500   0.0000
    28 H2'1        37.6685    13.3633    72.9767 H            1 DIH500   0.0000
    29 H2'2        36.1772    13.7827    73.4931 H            1 DIH500   0.0000
    30 H11         35.5873    10.8101    71.7607 H            1 DIH500   0.0000
    31 H12         36.0683    12.3350    71.4292 H            1 DIH500   0.0000
    32 H13         33.0627    10.4173    72.2297 H            1 DIH500   0.0000
    33 H14         30.9763    11.8096    72.3222 H            1 DIH500   0.0000
    34 H15         34.0421    16.8164    72.3416 H            1 DIH500   0.0000
    35 H1'         37.2327    11.1634    73.1671 H            1 DIH500   0.0000
    36 H17         31.6470    16.8242    72.4320 H            1 DIH500   0.0000
@<TRIPOS>BOND
     1    1    2       1
     2    2    3       1
     3    3    4       1
     4    3    5       1
     5    4    8       1
     6    5    6       1
     7    5    7       1
     8    7    8       1
     9    8    9       1
    10    9   10       1
    11   10   11       2
    12   10   19       1
    13   11   12       1
    14   12   13       1
    15   13   14       1
    16   13   19       2
    17   14   15       2
    18   14   16       1
    19   16   17       1
    20   17   18       2
    21   18   19       1
    22    1   20       1
    23    2   21       1
    24    2   22       1
    25    3   23       1
    26    4   24       1
    27    4   25       1
    28    5   26       1
    29    6   27       1
    30    7   28       1
    31    7   29       1
    32    9   30       1
    33    9   31       1
    34   11   32       1
    35   12   33       1
    36   17   34       1
    37   16   36       1
    38    8   35       1
@<TRIPOS>SUBSTRUCTURE
     1 DIH500      1 GROUP             4 I     DIH     0 **** DIH I 500
