@<TRIPOS>MOLECULE
2gmj_TBU_3_ligand
   15    14     1     0     0
SMALL
NO_CHARGES


@<TRIPOS>ATOM
     1 O           65.4170    20.2600    78.5270 O.3          1 TBU623   0.0000
     2 C           65.4500    20.4760    79.9430 C.3          1 TBU623   0.0000
     3 C1          64.2990    19.6710    80.5980 C.3          1 TBU623   0.0000
     4 C2          65.2930    21.9660    80.2280 C.3          1 TBU623   0.0000
     5 C3          66.7860    19.9860    80.5070 C.3          1 TBU623   0.0000
     6 H1          66.1564    20.7755    78.0939 H            1 TBU623   0.0000
     7 H2          64.3128    19.8147    81.5875 H            1 TBU623   0.0000
     8 H3          63.4231    19.9809    80.2283 H            1 TBU623   0.0000
     9 H4          64.4185    18.6979    80.4008 H            1 TBU623   0.0000
    10 H5          65.3156    22.1206    81.2157 H            1 TBU623   0.0000
    11 H6          66.0409    22.4689    79.7947 H            1 TBU623   0.0000
    12 H7          64.4196    22.2855    79.8605 H            1 TBU623   0.0000
    13 H8          66.8064    20.1379    81.4952 H            1 TBU623   0.0000
    14 H9          66.8898    19.0096    80.3176 H            1 TBU623   0.0000
    15 H10         67.5346    20.4904    80.0767 H            1 TBU623   0.0000
@<TRIPOS>BOND
     1    1    2       1
     2    2    3       1
     3    2    4       1
     4    2    5       1
     5    1    6       1
     6    3    7       1
     7    3    8       1
     8    3    9       1
     9    4   10       1
    10    4   11       1
    11    4   12       1
    12    5   13       1
    13    5   14       1
    14    5   15       1
@<TRIPOS>SUBSTRUCTURE
     1 TBU623      1 GROUP             4 A     TBU     0 **** TBU A 623
