@<TRIPOS>MOLECULE
3fsy_SCA_1_ligand
   42    44     1     0     0
SMALL
NO_CHARGES


@<TRIPOS>ATOM
     1 C8          83.4540    49.2070    51.2030 C.2          1 SCA331   0.0000
     2 N9          83.4510    49.8140    52.4060 N.pl3        1 SCA331   0.0000
     3 C4          84.2830    49.1740    53.2310 C.ar         1 SCA331   0.0000
     4 C5          84.8530    48.0820    52.4320 C.ar         1 SCA331   0.0000
     5 N7          84.3140    48.1550    51.2050 N.2          1 SCA331   0.0000
     6 N3          84.6620    49.3250    54.5360 N.ar         1 SCA331   0.0000
     7 C2          85.5520    48.4770    55.0800 C.ar         1 SCA331   0.0000
     8 N1          86.1140    47.4610    54.3910 N.ar         1 SCA331   0.0000
     9 C6          85.8160    47.1970    53.0940 C.ar         1 SCA331   0.0000
    10 N6          86.3640    46.1710    52.3840 N.pl3        1 SCA331   0.0000
    11 C1'         82.6250    50.9760    52.8020 C.3          1 SCA331   0.0000
    12 C2'         82.0270    51.6990    51.6100 C.3          1 SCA331   0.0000
    13 O2'         82.8970    52.7310    51.1380 O.3          1 SCA331   0.0000
    14 C3'         80.7120    52.2410    52.1600 C.3          1 SCA331   0.0000
    15 O3'         80.9060    53.5180    52.7540 O.3          1 SCA331   0.0000
    16 C4'         80.3310    51.2940    53.2780 C.3          1 SCA331   0.0000
    17 O4'         81.4860    50.4650    53.5090 O.3          1 SCA331   0.0000
    18 C5'         79.0880    50.4950    52.9040 C.3          1 SCA331   0.0000
    19 O5'         78.8890    49.4040    53.8080 O.3          1 SCA331   0.0000
    20 P1          78.1020    49.6450    55.1920 P.3          1 SCA331   0.0000
    21 O11         77.7130    51.1000    55.2620 O.co2        1 SCA331   0.0000
    22 O12         77.0460    48.5710    55.3400 O.co2        1 SCA331  -1.0000
    23 O6          79.2530    49.2840    56.2670 O.3          1 SCA331   0.0000
    24 P2          79.9600    50.3500    57.2480 P.3          1 SCA331   0.0000
    25 O21         79.5980    49.9660    58.6690 O.co2        1 SCA331   0.0000
    26 O22         79.6620    51.7480    56.7390 O.co2        1 SCA331  -1.0000
    27 O7          81.4990    49.9730    56.9870 O.co2        1 SCA331  -1.0000
    28 P3          79.7080    54.4290    53.3730 P.3          1 SCA331   0.0000
    29 O31         80.4430    55.6940    53.7350 O.co2        1 SCA331   0.0000
    30 O32         79.1970    53.6630    54.5760 O.co2        1 SCA331  -1.0000
    31 O33         78.7160    54.5740    52.2410 O.co2        1 SCA331  -1.0000
    32 H1          82.9013    49.4907    50.4194 H            1 SCA331   0.0000
    33 H2          85.8093    48.6044    56.0379 H            1 SCA331   0.0000
    34 H3          87.0227    45.5574    52.8194 H            1 SCA331   0.0000
    35 H4          86.1075    46.0318    51.4275 H            1 SCA331   0.0000
    36 H1'         83.1478    51.6063    53.3760 H            1 SCA331   0.0000
    37 H2'         81.8440    51.0468    50.8744 H            1 SCA331   0.0000
    38 H7          83.7704    52.3301    50.8614 H            1 SCA331   0.0000
    39 H3'         80.0062    52.2718    51.4523 H            1 SCA331   0.0000
    40 H4'         80.1407    51.8248    54.1038 H            1 SCA331   0.0000
    41 H5'1        79.1966    50.1360    51.9770 H            1 SCA331   0.0000
    42 H5'2        78.2901    51.0969    52.9370 H            1 SCA331   0.0000
@<TRIPOS>BOND
     1    1    2       1
     2    1    5       2
     3    2    3       1
     4    2   11       1
     5    3    4      ar
     6    3    6      ar
     7    4    5       1
     8    4    9      ar
     9    6    7      ar
    10    7    8      ar
    11    8    9      ar
    12    9   10       1
    13   11   12       1
    14   11   17       1
    15   12   13       1
    16   12   14       1
    17   14   15       1
    18   14   16       1
    19   15   28       1
    20   16   17       1
    21   16   18       1
    22   18   19       1
    23   19   20       1
    24   20   21      ar
    25   20   22      ar
    26   20   23       1
    27   23   24       1
    28   24   25      ar
    29   24   26      ar
    30   24   27      ar
    31   28   29      ar
    32   28   30      ar
    33   28   31      ar
    34    1   32       1
    35    7   33       1
    36   10   34       1
    37   10   35       1
    38   11   36       1
    39   12   37       1
    40   13   38       1
    41   14   39       1
    42   16   40       1
    43   18   41       1
    44   18   42       1
@<TRIPOS>SUBSTRUCTURE
     1 SCA331      1 GROUP             4 A     SCA     0 **** SCA A 331
