@<TRIPOS>MOLECULE
3bpx_SAL_1_ligand
   15    15     1     0     0
SMALL
NO_CHARGES


@<TRIPOS>ATOM
     1 C1'         24.8420     0.4420    25.6710 C.2          1 SAL257   0.0000
     2 O1'         25.1230    -0.4450    24.8750 O.co2        1 SAL257   0.0000
     3 O2'         25.2740     1.5530    25.3550 O.co2        1 SAL257  -1.0000
     4 C1          24.0780     0.2140    26.8680 C.ar         1 SAL257   0.0000
     5 C2          23.5570    -1.0900    27.2620 C.ar         1 SAL257   0.0000
     6 C3          22.7860    -1.3070    28.4720 C.ar         1 SAL257   0.0000
     7 C4          22.5290    -0.1850    29.3120 C.ar         1 SAL257   0.0000
     8 C5          23.0090     1.1360    28.9930 C.ar         1 SAL257   0.0000
     9 C6          23.7790     1.3200    27.7720 C.ar         1 SAL257   0.0000
    10 O2          23.7600    -2.2090    26.5140 O.3          1 SAL257   0.0000
    11 H1          22.4452    -2.2167    28.7093 H            1 SAL257   0.0000
    12 H2          21.9988    -0.3184    30.1493 H            1 SAL257   0.0000
    13 H3          22.8171     1.9092    29.5975 H            1 SAL257   0.0000
    14 H4          24.1143     2.2343    27.5449 H            1 SAL257   0.0000
    15 H5          24.2817    -2.1535    25.6627 H            1 SAL257   0.0000
@<TRIPOS>BOND
     1    1    2      ar
     2    1    3      ar
     3    1    4       1
     4    4    5      ar
     5    4    9      ar
     6    5    6      ar
     7    5   10       1
     8    6    7      ar
     9    7    8      ar
    10    8    9      ar
    11   10   15       1
    12    6   11       1
    13    7   12       1
    14    8   13       1
    15    9   14       1
@<TRIPOS>SUBSTRUCTURE
     1 SAL257      1 GROUP             4 A     SAL     0 **** SAL A 257
