@<TRIPOS>MOLECULE
1of0_EBS_1_ligand
   48    51     1     0     0
SMALL
NO_CHARGES


@<TRIPOS>ATOM
     1 C1          -0.3210    33.1190    39.6930 C.ar         1 EBS1518   0.0000
     2 C2           0.2470    33.7330    40.8380 C.ar         1 EBS1518   0.0000
     3 C3           0.4210    32.0750    38.9770 C.ar         1 EBS1518   0.0000
     4 C4           1.5990    33.3320    41.3190 C.ar         1 EBS1518   0.0000
     5 C5           1.7290    31.6870    39.4550 C.ar         1 EBS1518   0.0000
     6 C6           2.3160    32.3140    40.6200 C.ar         1 EBS1518   0.0000
     7 N7          -0.6420    34.7280    41.4170 N.pl3        1 EBS1518   0.0000
     8 C8          -1.8510    34.8010    40.6500 C.2          1 EBS1518   0.0000
     9 S9          -1.9330    33.7330    39.2830 S.3          1 EBS1518   0.0000
    10 C10         -6.7780    34.2430    43.2900 C.ar         1 EBS1518   0.0000
    11 C11         -6.2310    35.4330    43.8810 C.ar         1 EBS1518   0.0000
    12 C12         -7.7830    33.4750    43.9800 C.ar         1 EBS1518   0.0000
    13 C13         -6.7010    35.8710    45.2030 C.ar         1 EBS1518   0.0000
    14 C14         -8.2340    33.9350    45.3010 C.ar         1 EBS1518   0.0000
    15 C15         -7.6930    35.1230    45.9040 C.ar         1 EBS1518   0.0000
    16 N16         -5.1640    36.1560    43.0280 N.pl3        1 EBS1518   0.0000
    17 C17         -5.0740    35.2500    41.7320 C.2          1 EBS1518   0.0000
    18 S18         -6.1350    33.8290    41.7100 S.3          1 EBS1518   0.0000
    19 N19         -4.2460    35.5380    40.6980 N.2          1 EBS1518   0.0000
    20 N20         -2.8200    35.6300    40.9840 N.2          1 EBS1518   0.0000
    21 C21         -3.6760    36.1520    43.7000 C.3          1 EBS1518   0.0000
    22 C22         -3.4610    36.6960    45.1350 C.3          1 EBS1518   0.0000
    23 S23         -9.4520    33.0550    46.2040 S.o2         1 EBS1518   0.0000
    24 C24         -0.3460    35.5690    42.6580 C.3          1 EBS1518   0.0000
    25 C25         -0.4440    34.7430    43.9520 C.3          1 EBS1518   0.0000
    26 S26          2.6220    30.4100    38.6090 S.o2         1 EBS1518   0.0000
    27 O39         -9.7940    33.9130    47.9000 O.co2        1 EBS1518   0.0000
    28 O45          1.9460    28.7550    38.9050 O.co2        1 EBS1518   0.0000
    29 O46          4.0150    29.6770    37.5700 O.co2        1 EBS1518   0.0000
    30 O47          3.8210    31.8500    38.3740 O.co2        1 EBS1518  -1.0000
    31 O48        -10.4570    32.8540    44.5190 O.co2        1 EBS1518   0.0000
    32 O49        -11.0210    32.2050    46.6140 O.co2        1 EBS1518  -1.0000
    33 H1           0.0269    31.6375    38.1687 H            1 EBS1518   0.0000
    34 H2           2.0001    33.7712    42.1229 H            1 EBS1518   0.0000
    35 H3           3.2230    32.0345    40.9351 H            1 EBS1518   0.0000
    36 H4          -8.1652    32.6473    43.5692 H            1 EBS1518   0.0000
    37 H5          -6.3223    36.7001    45.6144 H            1 EBS1518   0.0000
    38 H6          -8.0086    35.4215    46.8047 H            1 EBS1518   0.0000
    39 H7          -3.0879    36.6917    43.0976 H            1 EBS1518   0.0000
    40 H8          -3.3659    35.2013    43.7043 H            1 EBS1518   0.0000
    41 H9          -2.4950    36.6158    45.3806 H            1 EBS1518   0.0000
    42 H10         -3.7357    37.6568    45.1719 H            1 EBS1518   0.0000
    43 H11         -4.0136    36.1664    45.7785 H            1 EBS1518   0.0000
    44 H12         -1.0050    36.3197    42.7037 H            1 EBS1518   0.0000
    45 H13          0.5789    35.9415    42.5823 H            1 EBS1518   0.0000
    46 H14         -0.2439    35.3288    44.7374 H            1 EBS1518   0.0000
    47 H15         -1.3679    34.3707    44.0407 H            1 EBS1518   0.0000
    48 H16          0.2161    33.9925    43.9192 H            1 EBS1518   0.0000
@<TRIPOS>BOND
     1    1    2      ar
     2    1    3      ar
     3    1    9       1
     4    2    4      ar
     5    2    7       1
     6    3    5      ar
     7    4    6      ar
     8    5    6      ar
     9    5   26       1
    10    7    8       1
    11    7   24       1
    12    8    9       1
    13    8   20       2
    14   10   11      ar
    15   10   12      ar
    16   10   18       1
    17   11   13      ar
    18   11   16       1
    19   12   14      ar
    20   13   15      ar
    21   14   15      ar
    22   14   23       1
    23   16   17       1
    24   16   21       1
    25   17   18       1
    26   17   19       2
    27   19   20       1
    28   21   22       1
    29   23   27      ar
    30   23   31      ar
    31   23   32      ar
    32   24   25       1
    33   26   28      ar
    34   26   29      ar
    35   26   30      ar
    36    3   33       1
    37    4   34       1
    38    6   35       1
    39   12   36       1
    40   13   37       1
    41   15   38       1
    42   21   39       1
    43   21   40       1
    44   22   41       1
    45   22   42       1
    46   22   43       1
    47   24   44       1
    48   24   45       1
    49   25   46       1
    50   25   47       1
    51   25   48       1
@<TRIPOS>SUBSTRUCTURE
     1 EBS1518     1 GROUP             4 A     EBS     0 **** EBS A1518
