@<TRIPOS>MOLECULE
2fy5_SOP_1_ligand
   88    90     1     0     0
SMALL
NO_CHARGES


@<TRIPOS>ATOM
     1 N6          27.8210    -6.2000    79.2720 N.pl3        1 SOP2000   0.0000
     2 C6          28.4050    -6.0660    78.0920 C.ar         1 SOP2000   0.0000
     3 N1          29.7540    -5.9000    77.9990 N.ar         1 SOP2000   0.0000
     4 C2          30.3660    -5.7590    76.8170 C.ar         1 SOP2000   0.0000
     5 N3          29.6380    -5.7890    75.6720 N.ar         1 SOP2000   0.0000
     6 C4          28.2920    -5.9470    75.6940 C.ar         1 SOP2000   0.0000
     7 C5          27.6380    -6.0990    76.9240 C.ar         1 SOP2000   0.0000
     8 N7          26.3520    -6.2430    76.6860 N.2          1 SOP2000   0.0000
     9 C8          26.1780    -6.1900    75.3610 C.2          1 SOP2000   0.0000
    10 N9          27.3440    -6.0160    74.7380 N.pl3        1 SOP2000   0.0000
    11 C1'         27.5480    -5.9000    73.2640 C.3          1 SOP2000   0.0000
    12 O4'         26.9040    -4.7360    72.6950 O.3          1 SOP2000   0.0000
    13 C2'         27.0030    -7.0480    72.3880 C.3          1 SOP2000   0.0000
    14 O2'         27.8380    -8.2050    72.4690 O.3          1 SOP2000   0.0000
    15 C3'         27.0210    -6.3990    71.0150 C.3          1 SOP2000   0.0000
    16 O3'         28.3200    -6.4460    70.4240 O.3          1 SOP2000   0.0000
    17 P3          28.4590    -6.2620    68.8290 P.3          1 SOP2000   0.0000
    18 O32         28.4520    -4.6700    68.5160 O.co2        1 SOP2000   0.0000
    19 O33         29.9060    -6.8530    68.4590 O.co2        1 SOP2000  -1.0000
    20 O31         27.3600    -6.9770    68.1160 O.co2        1 SOP2000  -1.0000
    21 C4'         26.5570    -4.9820    71.2990 C.3          1 SOP2000   0.0000
    22 C5'         25.0380    -4.9190    71.1200 C.3          1 SOP2000   0.0000
    23 O5'         24.5300    -3.8610    71.9150 O.3          1 SOP2000   0.0000
    24 P1          23.1700    -4.0170    72.7520 P.3          1 SOP2000   0.0000
    25 O11         23.1440    -2.8870    73.7080 O.co2        1 SOP2000   0.0000
    26 O12         23.1320    -5.3610    73.3550 O.co2        1 SOP2000  -1.0000
    27 O6          22.0700    -3.7780    71.6040 O.3          1 SOP2000   0.0000
    28 P2          21.1200    -4.9100    70.9970 P.3          1 SOP2000   0.0000
    29 O21         21.0780    -6.1040    71.8380 O.co2        1 SOP2000   0.0000
    30 O22         21.6060    -5.0810    69.6100 O.co2        1 SOP2000  -1.0000
    31 O7          19.7090    -4.1860    71.0270 O.3          1 SOP2000   0.0000
    32 CP9         18.7750    -4.4010    72.0930 C.3          1 SOP2000   0.0000
    33 CP8         17.3610    -4.3180    71.5010 C.3          1 SOP2000   0.0000
    34 CPB         17.1730    -2.9040    70.9000 C.3          1 SOP2000   0.0000
    35 CPA         16.3280    -4.5390    72.6160 C.3          1 SOP2000   0.0000
    36 CP7         17.2770    -5.4240    70.4080 C.3          1 SOP2000   0.0000
    37 OP3         17.2470    -6.7360    70.9860 O.3          1 SOP2000   0.0000
    38 CP6         16.0590    -5.2800    69.4990 C.2          1 SOP2000   0.0000
    39 OP2         14.9940    -5.8790    69.7260 O.2          1 SOP2000   0.0000
    40 NP2         16.3030    -4.4480    68.4690 N.am         1 SOP2000   0.0000
    41 CP5         15.2930    -4.1430    67.4570 C.3          1 SOP2000   0.0000
    42 CP4         14.6580    -2.8060    67.8220 C.3          1 SOP2000   0.0000
    43 CP3         13.5570    -2.4820    66.8210 C.2          1 SOP2000   0.0000
    44 OP1         12.5650    -3.2170    66.7510 O.2          1 SOP2000   0.0000
    45 NP1         13.7370    -1.3910    66.0740 N.am         1 SOP2000   0.0000
    46 CP2         12.7410    -0.9490    65.0630 C.3          1 SOP2000   0.0000
    47 CP1         11.4540    -0.4900    65.7870 C.3          1 SOP2000   0.0000
    48 S           10.1410     0.0480    64.6710 S.3          1 SOP2000   0.0000
    49 CA1         10.2620     1.7870    64.4010 C.3          1 SOP2000   0.0000
    50 CA2         10.5350     2.3040    63.0110 C.2          1 SOP2000   0.0000
    51 OA1         11.6660     2.6010    62.6880 O.2          1 SOP2000   0.0000
    52 CA3          9.2830     2.3830    62.1720 C.3          1 SOP2000   0.0000
    53 H1          26.8300    -6.3213    79.3285 H            1 SOP2000   0.0000
    54 H2          28.3707    -6.1799    80.1071 H            1 SOP2000   0.0000
    55 H3          31.3571    -5.6319    76.7777 H            1 SOP2000   0.0000
    56 H4          25.2940    -6.2700    74.9004 H            1 SOP2000   0.0000
    57 H1'         28.5304    -5.8225    73.0941 H            1 SOP2000   0.0000
    58 H2'         26.0661    -7.2749    72.6541 H            1 SOP2000   0.0000
    59 H7          27.4603    -8.9297    71.8926 H            1 SOP2000   0.0000
    60 H3'         26.3621    -6.8560    70.4175 H            1 SOP2000   0.0000
    61 H4'         27.0152    -4.3285    70.6965 H            1 SOP2000   0.0000
    62 H5'1        24.6289    -5.7842    71.4100 H            1 SOP2000   0.0000
    63 H5'2        24.8191    -4.7525    70.1586 H            1 SOP2000   0.0000
    64 HP91        18.8919    -3.6982    72.7948 H            1 SOP2000   0.0000
    65 HP92        18.9221    -5.3036    72.4974 H            1 SOP2000   0.0000
    66 HPB1        16.2563    -2.8277    70.5078 H            1 SOP2000   0.0000
    67 HPB2        17.2860    -2.2184    71.6192 H            1 SOP2000   0.0000
    68 HPB3        17.8552    -2.7524    70.1848 H            1 SOP2000   0.0000
    69 HPA1        15.4063    -4.4852    72.2319 H            1 SOP2000   0.0000
    70 HPA2        16.4666    -5.4410    73.0248 H            1 SOP2000   0.0000
    71 HPA3        16.4385    -3.8346    73.3172 H            1 SOP2000   0.0000
    72 HP7         18.0962    -5.3570    69.8384 H            1 SOP2000   0.0000
    73 HP3         18.1815    -7.0779    71.0854 H            1 SOP2000   0.0000
    74 HP2         17.2057    -4.0243    68.3936 H            1 SOP2000   0.0000
    75 HP51        14.5953    -4.8593    67.4457 H            1 SOP2000   0.0000
    76 HP52        15.7220    -4.0813    66.5558 H            1 SOP2000   0.0000
    77 HP41        15.3536    -2.0880    67.7975 H            1 SOP2000   0.0000
    78 HP42        14.2681    -2.8612    68.7412 H            1 SOP2000   0.0000
    79 HP1         14.5703    -0.8524    66.1986 H            1 SOP2000   0.0000
    80 HP21        12.5270    -1.7090    64.4493 H            1 SOP2000   0.0000
    81 HP22        13.1165    -0.1885    64.5333 H            1 SOP2000   0.0000
    82 HP11        11.6869     0.2727    66.3904 H            1 SOP2000   0.0000
    83 HP12        11.1101    -1.2540    66.3330 H            1 SOP2000   0.0000
    84 HA11        11.0004     2.1218    64.9864 H            1 SOP2000   0.0000
    85 HA12         9.3948     2.1884    64.6958 H            1 SOP2000   0.0000
    86 HA31         9.5125     2.7296    61.2625 H            1 SOP2000   0.0000
    87 HA32         8.8791     1.4719    62.0893 H            1 SOP2000   0.0000
    88 HA33         8.6278     2.9998    62.6082 H            1 SOP2000   0.0000
@<TRIPOS>BOND
     1    1    2       1
     2    2    3      ar
     3    2    7      ar
     4    3    4      ar
     5    4    5      ar
     6    5    6      ar
     7    6    7      ar
     8    6   10       1
     9    7    8       1
    10    8    9       2
    11    9   10       1
    12   10   11       1
    13   11   12       1
    14   11   13       1
    15   12   21       1
    16   13   14       1
    17   13   15       1
    18   15   16       1
    19   15   21       1
    20   16   17       1
    21   17   18      ar
    22   17   19      ar
    23   17   20      ar
    24   21   22       1
    25   22   23       1
    26   23   24       1
    27   24   25      ar
    28   24   26      ar
    29   24   27       1
    30   27   28       1
    31   28   29      ar
    32   28   30      ar
    33   28   31       1
    34   31   32       1
    35   32   33       1
    36   33   34       1
    37   33   35       1
    38   33   36       1
    39   36   37       1
    40   36   38       1
    41   38   39       2
    42   38   40      am
    43   40   41       1
    44   41   42       1
    45   42   43       1
    46   43   44       2
    47   43   45      am
    48   45   46       1
    49   46   47       1
    50   47   48       1
    51   48   49       1
    52   49   50       1
    53   50   51       2
    54   50   52       1
    55    1   53       1
    56    1   54       1
    57    4   55       1
    58    9   56       1
    59   11   57       1
    60   13   58       1
    61   14   59       1
    62   15   60       1
    63   52   88       1
    64   52   87       1
    65   21   61       1
    66   22   62       1
    67   22   63       1
    68   52   86       1
    69   49   85       1
    70   32   64       1
    71   32   65       1
    72   34   66       1
    73   34   67       1
    74   34   68       1
    75   35   69       1
    76   35   70       1
    77   35   71       1
    78   36   72       1
    79   37   73       1
    80   40   74       1
    81   41   75       1
    82   41   76       1
    83   42   77       1
    84   42   78       1
    85   45   79       1
    86   46   80       1
    87   46   81       1
    88   47   82       1
    89   47   83       1
    90   49   84       1
@<TRIPOS>SUBSTRUCTURE
     1 SOP2000     1 GROUP             4 A     SOP     0 **** SOP A2000
