@<TRIPOS>MOLECULE
3t8x_T8X_1_ligand
  176   178     1     0     0
SMALL
NO_CHARGES


@<TRIPOS>ATOM
     1 C1          29.0540   -55.4970    34.1020 C.3          1 T8X304   0.0000
     2 O1          28.3750   -54.5970    33.0960 O.3          1 T8X304   0.0000
     3 C2          30.4570   -54.9560    34.1830 C.3          1 T8X304   0.0000
     4 O2          30.3550   -53.7390    34.9510 O.3          1 T8X304   0.0000
     5 C3          30.7210   -54.8290    32.6790 C.3          1 T8X304   0.0000
     6 O3          31.8910   -54.1300    32.4180 O.3          1 T8X304   0.0000
     7 C4          30.9250   -56.2290    32.0780 C.3          1 T8X304   0.0000
     8 O4          31.0810   -56.1430    30.6260 O.3          1 T8X304   0.0000
     9 C5          29.7550   -57.1580    32.4650 C.3          1 T8X304   0.0000
    10 O5          29.3040   -56.9400    33.8360 O.3          1 T8X304   0.0000
    11 C6          30.1880   -58.5890    32.1060 C.3          1 T8X304   0.0000
    12 O6          30.1860   -58.5910    30.6700 O.3          1 T8X304   0.0000
    13 C7          39.7100   -43.6050    38.4900 C.3          1 T8X304   0.0000
    14 C8          38.4540   -43.4580    37.6220 C.3          1 T8X304   0.0000
    15 C9          38.5680   -43.8700    36.1540 C.3          1 T8X304   0.0000
    16 C10         37.1590   -43.7850    35.4730 C.3          1 T8X304   0.0000
    17 C11         36.2580   -45.0030    35.7640 C.3          1 T8X304   0.0000
    18 C12         34.7310   -44.8090    35.9210 C.3          1 T8X304   0.0000
    19 C13         33.9370   -45.5390    34.8080 C.3          1 T8X304   0.0000
    20 C14         32.6730   -46.3080    35.2470 C.3          1 T8X304   0.0000
    21 C15         31.7010   -46.5460    34.0820 C.3          1 T8X304   0.0000
    22 C16         32.2320   -47.4860    33.0200 C.3          1 T8X304   0.0000
    23 C17         31.3310   -48.7180    32.8760 C.3          1 T8X304   0.0000
    24 C18         31.6420   -49.5000    31.5950 C.3          1 T8X304   0.0000
    25 C19         31.1620   -50.9450    31.7100 C.3          1 T8X304   0.0000
    26 C20         32.0200   -51.7350    32.7470 C.3          1 T8X304   0.0000
    27 C21         31.5290   -51.6160    34.2000 C.3          1 T8X304   0.0000
    28 C22         31.4750   -52.9530    35.0010 C.2          1 T8X304   0.0000
    29 O7          32.3850   -53.2680    35.7710 O.2          1 T8X304   0.0000
    30 C23         45.0370   -44.7500    31.2580 C.3          1 T8X304   0.0000
    31 C24         43.7250   -44.7950    31.9920 C.3          1 T8X304   0.0000
    32 C25         42.5230   -44.7020    31.0860 C.3          1 T8X304   0.0000
    33 C26         41.2850   -44.7290    31.9300 C.3          1 T8X304   0.0000
    34 C27         40.1150   -45.3300    31.1930 C.3          1 T8X304   0.0000
    35 C28         39.2950   -46.2210    32.1380 C.3          1 T8X304   0.0000
    36 C29         38.7320   -47.3810    31.3570 C.3          1 T8X304   0.0000
    37 C30         38.3670   -48.5030    32.2730 C.3          1 T8X304   0.0000
    38 C31         37.0070   -49.0290    31.8630 C.3          1 T8X304   0.0000
    39 C32         37.1000   -50.5170    31.6460 C.3          1 T8X304   0.0000
    40 C33         36.8910   -50.8720    30.2060 C.3          1 T8X304   0.0000
    41 C34         36.1460   -52.2340    30.1660 C.3          1 T8X304   0.0000
    42 C35         36.9350   -53.4920    29.6940 C.3          1 T8X304   0.0000
    43 C36         36.8440   -54.5490    30.8280 C.3          1 T8X304   0.0000
    44 C37         36.1740   -53.9090    32.0810 C.3          1 T8X304   0.0000
    45 C38         34.6230   -54.0330    32.1100 C.3          1 T8X304   0.0000
    46 C39         33.7870   -54.4360    31.0460 C.2          1 T8X304   0.0000
    47 C40         32.4200   -54.4620    31.2100 C.2          1 T8X304   0.0000
    48 O8          31.6330   -54.8810    30.1890 O.3          1 T8X304   0.0000
    49 O9          26.6270   -54.9170    31.1730 O.3          1 T8X304   0.0000
    50 O10         26.0840   -52.2720    29.8160 O.3          1 T8X304   0.0000
    51 O11         27.3640   -50.0330    31.2470 O.3          1 T8X304   0.0000
    52 O12         27.2320   -52.6490    34.0280 O.3          1 T8X304   0.0000
    53 O13         26.6660   -50.2280    34.8340 O.3          1 T8X304   0.0000
    54 C41         27.0960   -53.8870    33.3140 C.3          1 T8X304   0.0000
    55 C42         26.3830   -53.7060    31.9330 C.3          1 T8X304   0.0000
    56 C43         26.8230   -52.4500    31.0970 C.3          1 T8X304   0.0000
    57 C44         26.8780   -51.1840    32.0050 C.3          1 T8X304   0.0000
    58 C45         27.7710   -51.5280    33.2390 C.3          1 T8X304   0.0000
    59 C46         27.9390   -50.3860    34.2080 C.3          1 T8X304   0.0000
    60 C47         34.2600   -54.8160    29.6520 C.3          1 T8X304   0.0000
    61 C48         36.7430   -54.4690    33.3810 C.3          1 T8X304   0.0000
    62 C49         45.0090   -44.2950    29.8530 C.3          1 T8X304   0.0000
    63 C50         46.4970   -44.1520    29.3680 C.3          1 T8X304   0.0000
    64 C51         46.7910   -45.4050    28.4820 C.3          1 T8X304   0.0000
    65 C52         47.3730   -45.0860    27.1140 C.3          1 T8X304   0.0000
    66 S1          25.6870   -55.9730    31.5320 S.o2         1 T8X304   0.0000
    67 O14         25.4540   -56.8540    30.3200 O.co2        1 T8X304   0.0000
    68 O15         26.2950   -56.7710    32.6280 O.co2        1 T8X304   0.0000
    69 O16         24.3810   -55.3120    31.9670 O.co2        1 T8X304  -1.0000
    70 C53         36.4090   -54.0360    28.3240 C.3          1 T8X304   0.0000
    71 C54         36.0300   -49.8140    29.5190 C.3          1 T8X304   0.0000
    72 C55         47.7060   -46.2990    26.2660 C.3          1 T8X304   0.0000
    73 C56         47.7860   -45.8810    24.8010 C.3          1 T8X304   0.0000
    74 H1          28.6079   -55.3962    34.9913 H            1 T8X304   0.0000
    75 H2          31.0796   -55.6106    34.6118 H            1 T8X304   0.0000
    76 H3          29.9477   -54.3769    32.2344 H            1 T8X304   0.0000
    77 H4          31.7662   -56.6121    32.4595 H            1 T8X304   0.0000
    78 H5          28.9886   -56.9265    31.8658 H            1 T8X304   0.0000
    79 H6          29.5386   -59.2594    32.4651 H            1 T8X304   0.0000
    80 H7          31.1014   -58.7858    32.4622 H            1 T8X304   0.0000
    81 H8          29.4976   -57.9468    30.3367 H            1 T8X304   0.0000
    82 H9          39.5079   -43.3051    39.4223 H            1 T8X304   0.0000
    83 H10         39.9961   -44.5631    38.5027 H            1 T8X304   0.0000
    84 H11         40.4449   -43.0427    38.1109 H            1 T8X304   0.0000
    85 H12         38.1836   -42.4955    37.6444 H            1 T8X304   0.0000
    86 H13         37.7349   -44.0159    38.0362 H            1 T8X304   0.0000
    87 H14         38.9090   -44.8084    36.0972 H            1 T8X304   0.0000
    88 H15         39.2022   -43.2559    35.6843 H            1 T8X304   0.0000
    89 H16         37.2895   -43.7174    34.4839 H            1 T8X304   0.0000
    90 H17         36.6964   -42.9630    35.8051 H            1 T8X304   0.0000
    91 H18         36.5874   -45.4100    36.6160 H            1 T8X304   0.0000
    92 H19         36.3922   -45.6488    35.0123 H            1 T8X304   0.0000
    93 H20         34.5234   -43.8317    35.8781 H            1 T8X304   0.0000
    94 H21         34.4490   -45.1710    36.8095 H            1 T8X304   0.0000
    95 H22         34.5555   -46.1950    34.3754 H            1 T8X304   0.0000
    96 H23         33.6562   -44.8530    34.1368 H            1 T8X304   0.0000
    97 H24         32.2040   -45.7787    35.9540 H            1 T8X304   0.0000
    98 H25         32.9490   -47.1932    35.6214 H            1 T8X304   0.0000
    99 H26         31.5035   -45.6650    33.6521 H            1 T8X304   0.0000
   100 H27         30.8563   -46.9335    34.4512 H            1 T8X304   0.0000
   101 H28         33.1522   -47.7821    33.2759 H            1 T8X304   0.0000
   102 H29         32.2684   -47.0035    32.1449 H            1 T8X304   0.0000
   103 H30         30.3766   -48.4205    32.8506 H            1 T8X304   0.0000
   104 H31         31.4726   -49.3171    33.6640 H            1 T8X304   0.0000
   105 H32         32.6298   -49.4943    31.4394 H            1 T8X304   0.0000
   106 H33         31.1805   -49.0619    30.8236 H            1 T8X304   0.0000
   107 H34         31.2385   -51.3876    30.8166 H            1 T8X304   0.0000
   108 H35         30.2062   -50.9502    32.0039 H            1 T8X304   0.0000
   109 H36         32.9577   -51.3903    32.7045 H            1 T8X304   0.0000
   110 H37         32.0083   -52.7016    32.4910 H            1 T8X304   0.0000
   111 H38         30.6069   -51.2293    34.1831 H            1 T8X304   0.0000
   112 H39         32.1434   -50.9920    34.6829 H            1 T8X304   0.0000
   113 H40         45.4189   -45.6742    31.2674 H            1 T8X304   0.0000
   114 H41         45.6426   -44.1340    31.7617 H            1 T8X304   0.0000
   115 H42         43.6961   -44.0298    32.6351 H            1 T8X304   0.0000
   116 H43         43.6745   -45.6568    32.4968 H            1 T8X304   0.0000
   117 H44         42.5168   -45.4769    30.4539 H            1 T8X304   0.0000
   118 H45         42.5580   -43.8483    30.5664 H            1 T8X304   0.0000
   119 H46         41.0539   -43.7928    32.1949 H            1 T8X304   0.0000
   120 H47         41.4645   -45.2727    32.7498 H            1 T8X304   0.0000
   121 H48         40.4528   -45.8807    30.4297 H            1 T8X304   0.0000
   122 H49         39.5329   -44.5962    30.8426 H            1 T8X304   0.0000
   123 H50         38.5465   -45.6893    32.5342 H            1 T8X304   0.0000
   124 H51         39.8839   -46.5642    32.8697 H            1 T8X304   0.0000
   125 H52         39.4175   -47.7005    30.7028 H            1 T8X304   0.0000
   126 H53         37.9156   -47.0801    30.8641 H            1 T8X304   0.0000
   127 H54         38.3311   -48.1717    33.2158 H            1 T8X304   0.0000
   128 H55         39.0472   -49.2326    32.2017 H            1 T8X304   0.0000
   129 H56         36.7174   -48.5843    31.0155 H            1 T8X304   0.0000
   130 H57         36.3419   -48.8366    32.5845 H            1 T8X304   0.0000
   131 H58         36.4006   -50.9709    32.1981 H            1 T8X304   0.0000
   132 H59         38.0055   -50.8316    31.9308 H            1 T8X304   0.0000
   133 H60         37.7729   -50.9504    29.7412 H            1 T8X304   0.0000
   134 H61         35.3645   -52.1264    29.5514 H            1 T8X304   0.0000
   135 H62         35.8184   -52.4199    31.0923 H            1 T8X304   0.0000
   136 H63         37.8950   -53.2355    29.5813 H            1 T8X304   0.0000
   137 H64         37.7631   -54.8634    31.0653 H            1 T8X304   0.0000
   138 H65         36.2961   -55.3255    30.5169 H            1 T8X304   0.0000
   139 H66         36.3900   -52.9328    32.0627 H            1 T8X304   0.0000
   140 H67         34.2956   -53.1234    32.3658 H            1 T8X304   0.0000
   141 H68         34.4289   -54.6774    32.8497 H            1 T8X304   0.0000
   142 H69         25.1602   -52.6433    29.9097 H            1 T8X304   0.0000
   143 H70         26.9617   -49.1959    31.6176 H            1 T8X304   0.0000
   144 H71         26.7102   -49.4787    35.4948 H            1 T8X304   0.0000
   145 H72         26.5174   -54.4852    33.8685 H            1 T8X304   0.0000
   146 H73         25.3993   -53.6379    32.0992 H            1 T8X304   0.0000
   147 H74         27.7711   -52.6272    30.8328 H            1 T8X304   0.0000
   148 H75         25.9529   -50.9842    32.3280 H            1 T8X304   0.0000
   149 H76         28.6767   -51.7891    32.9051 H            1 T8X304   0.0000
   150 H77         28.6385   -50.6047    34.8884 H            1 T8X304   0.0000
   151 H78         28.1960   -49.5504    33.7225 H            1 T8X304   0.0000
   152 H79         33.4717   -55.0622    29.0881 H            1 T8X304   0.0000
   153 H80         34.7363   -54.0400    29.2385 H            1 T8X304   0.0000
   154 H81         34.8831   -55.5958    29.7125 H            1 T8X304   0.0000
   155 H82         36.2884   -54.0343    34.1584 H            1 T8X304   0.0000
   156 H83         36.5888   -55.4565    33.4143 H            1 T8X304   0.0000
   157 H84         37.7247   -54.2833    33.4225 H            1 T8X304   0.0000
   158 H85         44.5438   -43.4120    29.7901 H            1 T8X304   0.0000
   159 H86         44.5292   -44.9656    29.2872 H            1 T8X304   0.0000
   160 H87         47.1164   -44.1296    30.1527 H            1 T8X304   0.0000
   161 H88         46.6077   -43.3151    28.8320 H            1 T8X304   0.0000
   162 H89         45.9334   -45.9017    28.3487 H            1 T8X304   0.0000
   163 H90         47.4411   -45.9874    28.9701 H            1 T8X304   0.0000
   164 H91         48.2129   -44.5601    27.2481 H            1 T8X304   0.0000
   165 H92         46.7080   -44.5305    26.6148 H            1 T8X304   0.0000
   166 H93         36.9405   -54.8404    28.0585 H            1 T8X304   0.0000
   167 H94         35.4453   -54.2878    28.4132 H            1 T8X304   0.0000
   168 H95         36.5051   -53.3274    27.6249 H            1 T8X304   0.0000
   169 H96         35.8984   -50.0629    28.5595 H            1 T8X304   0.0000
   170 H97         35.1413   -49.7604    29.9743 H            1 T8X304   0.0000
   171 H98         36.4865   -48.9260    29.5734 H            1 T8X304   0.0000
   172 H99         46.9929   -46.9911    26.3778 H            1 T8X304   0.0000
   173 H100        48.5857   -46.6772    26.5543 H            1 T8X304   0.0000
   174 H101        48.0054   -46.6781    24.2384 H            1 T8X304   0.0000
   175 H102        46.9061   -45.5024    24.5139 H            1 T8X304   0.0000
   176 H103        48.4989   -45.1885    24.6904 H            1 T8X304   0.0000
@<TRIPOS>BOND
     1    1    2       1
     2    1    3       1
     3    1   10       1
     4    2   54       1
     5    3    4       1
     6    3    5       1
     7    4   28       1
     8    5    6       1
     9    5    7       1
    10    6   47       1
    11    7    8       1
    12    7    9       1
    13    8   48       1
    14    9   10       1
    15    9   11       1
    16   11   12       1
    17   13   14       1
    18   14   15       1
    19   15   16       1
    20   16   17       1
    21   17   18       1
    22   18   19       1
    23   19   20       1
    24   20   21       1
    25   21   22       1
    26   22   23       1
    27   23   24       1
    28   24   25       1
    29   25   26       1
    30   26   27       1
    31   27   28       1
    32   28   29       2
    33   30   31       1
    34   30   62       1
    35   31   32       1
    36   32   33       1
    37   33   34       1
    38   34   35       1
    39   35   36       1
    40   36   37       1
    41   37   38       1
    42   38   39       1
    43   39   40       1
    44   40   41       1
    45   40   71       1
    46   41   42       1
    47   42   43       1
    48   42   70       1
    49   43   44       1
    50   44   45       1
    51   44   61       1
    52   45   46       1
    53   46   47       2
    54   46   60       1
    55   47   48       1
    56   49   55       1
    57   49   66       1
    58   50   56       1
    59   51   57       1
    60   52   54       1
    61   52   58       1
    62   53   59       1
    63   54   55       1
    64   55   56       1
    65   56   57       1
    66   57   58       1
    67   58   59       1
    68   62   63       1
    69   63   64       1
    70   64   65       1
    71   65   72       1
    72   66   67      ar
    73   66   68      ar
    74   66   69      ar
    75   72   73       1
    76    1   74       1
    77    3   75       1
    78    5   76       1
    79    7   77       1
    80    9   78       1
    81   11   79       1
    82   11   80       1
    83   12   81       1
    84   13   82       1
    85   13   83       1
    86   13   84       1
    87   14   85       1
    88   14   86       1
    89   15   87       1
    90   15   88       1
    91   16   89       1
    92   16   90       1
    93   17   91       1
    94   17   92       1
    95   18   93       1
    96   18   94       1
    97   19   95       1
    98   19   96       1
    99   20   97       1
   100   20   98       1
   101   21   99       1
   102   21  100       1
   103   22  101       1
   104   22  102       1
   105   23  103       1
   106   23  104       1
   107   24  105       1
   108   24  106       1
   109   25  107       1
   110   25  108       1
   111   26  109       1
   112   26  110       1
   113   27  111       1
   114   27  112       1
   115   30  113       1
   116   30  114       1
   117   31  115       1
   118   31  116       1
   119   32  117       1
   120   32  118       1
   121   33  119       1
   122   33  120       1
   123   34  121       1
   124   34  122       1
   125   35  123       1
   126   35  124       1
   127   36  125       1
   128   36  126       1
   129   37  127       1
   130   37  128       1
   131   38  129       1
   132   38  130       1
   133   39  131       1
   134   39  132       1
   135   40  133       1
   136   41  134       1
   137   41  135       1
   138   42  136       1
   139   43  137       1
   140   43  138       1
   141   44  139       1
   142   45  140       1
   143   45  141       1
   144   50  142       1
   145   51  143       1
   146   53  144       1
   147   54  145       1
   148   55  146       1
   149   56  147       1
   150   57  148       1
   151   58  149       1
   152   59  150       1
   153   59  151       1
   154   60  152       1
   155   60  153       1
   156   60  154       1
   157   61  155       1
   158   61  156       1
   159   61  157       1
   160   62  158       1
   161   62  159       1
   162   63  160       1
   163   63  161       1
   164   64  162       1
   165   64  163       1
   166   65  164       1
   167   65  165       1
   168   73  176       1
   169   70  166       1
   170   70  167       1
   171   70  168       1
   172   71  169       1
   173   71  170       1
   174   71  171       1
   175   72  172       1
   176   72  173       1
   177   73  174       1
   178   73  175       1
@<TRIPOS>SUBSTRUCTURE
     1 T8X304      1 GROUP             4 A     T8X     0 **** T8X A 304
