@<TRIPOS>MOLECULE
4awm_KDH_1_ligand
   50    53     1     0     0
SMALL
NO_CHARGES


@<TRIPOS>ATOM
     1 O1          13.5850   -32.1570    16.3220 O.3          1 KDH911  -1.0000
     2 C3          12.5790   -32.2250    17.2250 C.ar         1 KDH911   0.0000
     3 C6          11.3030   -31.7200    16.9390 C.ar         1 KDH911   0.0000
     4 O7          11.0020   -31.1340    15.7460 O.3          1 KDH911   0.0000
     5 C9          10.3180   -31.8120    17.9010 C.ar         1 KDH911   0.0000
     6 O10          9.0670   -31.3420    17.6630 O.3          1 KDH911   0.0000
     7 C12         10.5890   -32.3880    19.1280 C.ar         1 KDH911   0.0000
     8 C14         11.8490   -32.8940    19.4150 C.ar         1 KDH911   0.0000
     9 C15         12.1240   -33.5240    20.7320 C.3          1 KDH911   0.0000
    10 C20         10.8110   -33.4030    22.8090 C.ar         1 KDH911   0.0000
    11 C21         10.1280   -32.5980    23.7130 C.ar         1 KDH911   0.0000
    12 C24          9.5350   -33.1600    24.8350 C.ar         1 KDH911   0.0000
    13 C26          9.6190   -34.5390    25.0450 C.ar         1 KDH911   0.0000
    14 C29         10.3080   -35.3450    24.1400 C.ar         1 KDH911   0.0000
    15 C31         10.9060   -34.7790    23.0200 C.ar         1 KDH911   0.0000
    16 C33         11.7120   -34.9950    20.6900 C.3          1 KDH911   0.0000
    17 C36         10.0900   -35.2650    18.8830 C.2          1 KDH911   0.0000
    18 C38          8.6970   -34.9830    18.4490 C.ar         1 KDH911   0.0000
    19 C39          8.4910   -34.4370    17.1980 C.ar         1 KDH911   0.0000
    20 C41          7.6240   -35.2710    19.3010 C.ar         1 KDH911   0.0000
    21 C01         11.6750   -35.6520    22.0470 C.3          1 KDH911   0.0000
    22 O01         11.3830   -32.7990    21.7210 O.3          1 KDH911   0.0000
    23 O02          8.8710   -32.3520    25.7180 O.3          1 KDH911   0.0000
    24 O03         10.4010   -36.6840    24.3660 O.3          1 KDH911   0.0000
    25 C4          12.8470   -32.8140    18.4600 C.ar         1 KDH911   0.0000
    26 O35         10.3600   -35.0940    20.2800 O.3          1 KDH911   0.0000
    27 O37         10.9590   -35.6360    18.1270 O.2          1 KDH911   0.0000
    28 C43          6.3210   -35.0100    18.8730 C.ar         1 KDH911   0.0000
    29 O44          5.2530   -35.2870    19.6890 O.3          1 KDH911   0.0000
    30 C46          6.1200   -34.4570    17.6090 C.ar         1 KDH911   0.0000
    31 O47          4.8480   -34.1830    17.2060 O.3          1 KDH911   0.0000
    32 C49          7.2010   -34.1720    16.7700 C.ar         1 KDH911   0.0000
    33 O50          7.0470   -33.6180    15.5300 O.3          1 KDH911   0.0000
    34 H1          10.0798   -30.7854    15.5788 H            1 KDH911   0.0000
    35 H2           8.3627   -31.4151    18.3691 H            1 KDH911   0.0000
    36 H3           9.8673   -32.4408    19.8182 H            1 KDH911   0.0000
    37 H4          13.1011   -33.4582    20.9344 H            1 KDH911   0.0000
    38 H5          10.0638   -31.6127    23.5548 H            1 KDH911   0.0000
    39 H6           9.1837   -34.9488    25.8466 H            1 KDH911   0.0000
    40 H7          12.3049   -35.5073    20.0687 H            1 KDH911   0.0000
    41 H8           9.2693   -34.2339    16.6039 H            1 KDH911   0.0000
    42 H9           7.7893   -35.6599    20.2073 H            1 KDH911   0.0000
    43 H10         11.2252   -36.5420    21.9727 H            1 KDH911   0.0000
    44 H11         12.6093   -35.7775    22.3806 H            1 KDH911   0.0000
    45 H12          8.4400   -32.7462    26.5297 H            1 KDH911   0.0000
    46 H13          9.9763   -37.0847    25.1778 H            1 KDH911   0.0000
    47 H14         13.7579   -33.1776    18.6550 H            1 KDH911   0.0000
    48 H15          5.4054   -35.6783    20.5965 H            1 KDH911   0.0000
    49 H16          4.0780   -34.3786    17.8133 H            1 KDH911   0.0000
    50 H17          6.1315   -33.4117    15.1847 H            1 KDH911   0.0000
@<TRIPOS>BOND
     1    1    2       1
     2    2    3      ar
     3    2   25      ar
     4    3    4       1
     5    3    5      ar
     6    5    6       1
     7    5    7      ar
     8    7    8      ar
     9    8    9       1
    10    8   25      ar
    11    9   16       1
    12    9   22       1
    13   10   11      ar
    14   10   15      ar
    15   10   22       1
    16   11   12      ar
    17   12   13      ar
    18   12   23       1
    19   13   14      ar
    20   14   15      ar
    21   14   24       1
    22   15   21       1
    23   16   21       1
    24   16   26       1
    25   17   18       1
    26   17   26       1
    27   17   27       2
    28   18   19      ar
    29   18   20      ar
    30   19   32      ar
    31   20   28      ar
    32   28   29       1
    33   28   30      ar
    34   30   31       1
    35   30   32      ar
    36   32   33       1
    37   33   50       1
    38    4   34       1
    39    6   35       1
    40    7   36       1
    41    9   37       1
    42   11   38       1
    43   13   39       1
    44   16   40       1
    45   19   41       1
    46   20   42       1
    47   21   43       1
    48   21   44       1
    49   23   45       1
    50   24   46       1
    51   25   47       1
    52   29   48       1
    53   31   49       1
@<TRIPOS>SUBSTRUCTURE
     1 KDH911      1 GROUP             4 A     KDH     0 **** KDH A 911
