@<TRIPOS>MOLECULE
3zkd_ANP_4_ligand
   44    46     1     0     0
SMALL
NO_CHARGES


@<TRIPOS>ATOM
     1 PG         -13.8450   -35.0770     1.9230 P.3          1 ANP601   0.0000
     2 O1G        -14.2870   -35.2640     3.4210 O.co2        1 ANP601   0.0000
     3 O2G        -15.0580   -35.1630     0.9380 O.co2        1 ANP601  -1.0000
     4 O3G        -13.1740   -33.6670     1.7980 O.co2        1 ANP601  -1.0000
     5 PB         -11.5180   -36.3990     2.4050 P.3          1 ANP601   0.0000
     6 O1B        -10.5220   -37.3690     1.5700 O.co2        1 ANP601   0.0000
     7 O2B        -11.9360   -37.0640     3.7470 O.co2        1 ANP601  -1.0000
     8 N3B        -12.8250   -36.1500     1.5800 N.3          1 ANP601   0.0000
     9 PA         -10.4920   -34.4280     4.0520 P.3          1 ANP601   0.0000
    10 O1A         -9.9240   -33.0800     3.8040 O.co2        1 ANP601   0.0000
    11 O2A        -11.7890   -34.3240     4.9070 O.co2        1 ANP601  -1.0000
    12 O3A        -10.8070   -34.9880     2.6490 O.3          1 ANP601   0.0000
    13 O5'         -9.4680   -35.3110     4.7730 O.3          1 ANP601   0.0000
    14 C5'         -8.2260   -35.7110     4.0850 C.3          1 ANP601   0.0000
    15 C4'         -7.6570   -37.0270     4.3610 C.3          1 ANP601   0.0000
    16 O4'         -7.0500   -37.0510     5.6380 O.3          1 ANP601   0.0000
    17 C3'         -8.6390   -38.0670     4.3660 C.3          1 ANP601   0.0000
    18 O3'         -8.6770   -38.6480     3.0870 O.3          1 ANP601   0.0000
    19 C2'         -8.1710   -39.0210     5.3620 C.3          1 ANP601   0.0000
    20 O2'         -7.3390   -39.9780     4.7360 O.3          1 ANP601   0.0000
    21 C1'         -7.3590   -38.2610     6.2850 C.3          1 ANP601   0.0000
    22 N9          -8.0140   -38.0180     7.5250 N.pl3        1 ANP601   0.0000
    23 C8          -8.6910   -36.9090     7.8650 C.2          1 ANP601   0.0000
    24 N7          -9.1440   -37.0400     9.2050 N.2          1 ANP601   0.0000
    25 C5          -8.7250   -38.2530     9.6750 C.ar         1 ANP601   0.0000
    26 C6          -8.8740   -38.9050    10.8910 C.ar         1 ANP601   0.0000
    27 N6          -9.6610   -38.2400    11.9960 N.pl3        1 ANP601   0.0000
    28 N1          -8.3010   -40.1610    11.0960 N.ar         1 ANP601   0.0000
    29 C2          -7.5580   -40.7720    10.0690 C.ar         1 ANP601   0.0000
    30 N3          -7.4170   -40.1920     8.9350 N.ar         1 ANP601   0.0000
    31 C4          -7.9940   -38.8980     8.6540 C.ar         1 ANP601   0.0000
    32 H3B        -13.3251   -37.0159     1.5934 H            1 ANP601   0.0000
    33 H5'1        -7.5287   -35.0346     4.3220 H            1 ANP601   0.0000
    34 H5'2        -8.4091   -35.6709     3.1027 H            1 ANP601   0.0000
    35 H4'         -6.9663   -37.2348     3.6683 H            1 ANP601   0.0000
    36 H3'         -9.5367   -37.7049     4.6171 H            1 ANP601   0.0000
    37 H6          -9.3450   -38.1648     2.5211 H            1 ANP601   0.0000
    38 H2'         -8.9375   -39.4596     5.8310 H            1 ANP601   0.0000
    39 H8          -7.0156   -40.6350     5.4171 H            1 ANP601   0.0000
    40 H1'         -6.5109   -38.7616     6.4589 H            1 ANP601   0.0000
    41 H10         -8.8502   -36.1199     7.2717 H            1 ANP601   0.0000
    42 H11         -9.7745   -38.7009    12.8761 H            1 ANP601   0.0000
    43 H12        -10.0684   -37.3389    11.8472 H            1 ANP601   0.0000
    44 H13         -7.1369   -41.6654    10.2252 H            1 ANP601   0.0000
@<TRIPOS>BOND
     1    1    2      ar
     2    1    3      ar
     3    1    4      ar
     4    1    8       1
     5    5    6      ar
     6    5    7      ar
     7    5    8       1
     8    5   12       1
     9    9   10      ar
    10    9   11      ar
    11    9   12       1
    12    9   13       1
    13   13   14       1
    14   14   15       1
    15   15   16       1
    16   15   17       1
    17   16   21       1
    18   17   18       1
    19   17   19       1
    20   19   20       1
    21   19   21       1
    22   21   22       1
    23   22   23       1
    24   22   31       1
    25   23   24       2
    26   24   25       1
    27   25   26      ar
    28   25   31      ar
    29   26   27       1
    30   26   28      ar
    31   28   29      ar
    32   29   30      ar
    33   30   31      ar
    34   29   44       1
    35   27   43       1
    36   27   42       1
    37    8   32       1
    38   23   41       1
    39   14   33       1
    40   14   34       1
    41   15   35       1
    42   17   36       1
    43   18   37       1
    44   19   38       1
    45   20   39       1
    46   21   40       1
@<TRIPOS>SUBSTRUCTURE
     1 ANP601      1 GROUP             4 D     ANP     0 **** ANP D 601
