@<TRIPOS>MOLECULE
4gbi_CRS_2_ligand
   16    16     1     0     0
SMALL
NO_CHARGES


@<TRIPOS>ATOM
     1 C1          14.0600     9.1510   -10.1050 C.ar         1 CRS103   0.0000
     2 C2          13.9630     7.9330   -10.8020 C.ar         1 CRS103   0.0000
     3 C3          14.4830     7.8320   -12.1020 C.ar         1 CRS103   0.0000
     4 C4          15.1070     8.9450   -12.6890 C.ar         1 CRS103   0.0000
     5 C5          15.2030    10.1560   -11.9980 C.ar         1 CRS103   0.0000
     6 C6          14.6760    10.2480   -10.7060 C.ar         1 CRS103   0.0000
     7 C7          14.4100     6.5250   -12.8730 C.3          1 CRS103   0.0000
     8 O1          13.5640     9.2660    -8.8350 O.3          1 CRS103   0.0000
     9 H1          13.5255     7.1425   -10.3733 H            1 CRS103   0.0000
    10 H2          15.4866     8.8701   -13.6111 H            1 CRS103   0.0000
    11 H3          15.6433    10.9472   -12.4224 H            1 CRS103   0.0000
    12 H4          14.7418    11.1119   -10.2066 H            1 CRS103   0.0000
    13 H5          14.8283     6.6453   -13.7733 H            1 CRS103   0.0000
    14 H6          14.9005     5.8134   -12.3699 H            1 CRS103   0.0000
    15 H7          13.4532     6.2560   -12.9832 H            1 CRS103   0.0000
    16 H8          13.6371    10.1355    -8.3465 H            1 CRS103   0.0000
@<TRIPOS>BOND
     1    1    2      ar
     2    1    6      ar
     3    1    8       1
     4    2    3      ar
     5    3    4      ar
     6    3    7       1
     7    4    5      ar
     8    5    6      ar
     9    2    9       1
    10    4   10       1
    11    5   11       1
    12    6   12       1
    13    7   13       1
    14    7   14       1
    15    7   15       1
    16    8   16       1
@<TRIPOS>SUBSTRUCTURE
     1 CRS103      1 GROUP             4 B     CRS     0 **** CRS B 103
