@<TRIPOS>MOLECULE
3p9t_TCL_2_ligand
   24    25     1     0     0
SMALL
NO_CHARGES


@<TRIPOS>ATOM
     1 C1         -15.2260    -5.7250    32.6030 C.ar         1 TCL222   0.0000
     2 C2         -13.9590    -5.7170    32.0200 C.ar         1 TCL222   0.0000
     3 C6         -15.7260    -4.6140    33.2590 C.ar         1 TCL222   0.0000
     4 C5         -14.9090    -3.3890    33.3680 C.ar         1 TCL222   0.0000
     5 C4         -13.6230    -3.4080    32.8010 C.ar         1 TCL222   0.0000
     6 C3         -13.1660    -4.5580    32.1350 C.ar         1 TCL222   0.0000
     7 C11        -18.2870     0.1950    31.8570 C.ar         1 TCL222   0.0000
     8 C10        -17.9280     0.5190    33.2020 C.ar         1 TCL222   0.0000
     9 C9         -16.9920    -0.2670    33.9220 C.ar         1 TCL222   0.0000
    10 C8         -16.3840    -1.4650    33.2860 C.ar         1 TCL222   0.0000
    11 C12        -17.7190    -0.9270    31.2540 C.ar         1 TCL222   0.0000
    12 C13        -16.7870    -1.7320    31.9530 C.ar         1 TCL222   0.0000
    13 O7         -15.4640    -2.2730    33.9880 O.3          1 TCL222   0.0000
    14 CL14       -13.4710    -7.2470    31.1660 Cl           1 TCL222   0.0000
    15 CL15       -19.4610     1.1390    30.8560 Cl           1 TCL222   0.0000
    16 CL16       -16.4960     0.0590    35.6270 Cl           1 TCL222   0.0000
    17 O17        -16.9790    -4.6650    33.7690 O.3          1 TCL222   0.0000
    18 H1         -15.7854    -6.5519    32.5457 H            1 TCL222   0.0000
    19 H2         -13.0334    -2.6034    32.8715 H            1 TCL222   0.0000
    20 H3         -12.2513    -4.5536    31.7309 H            1 TCL222   0.0000
    21 H4         -18.3441     1.3140    33.6434 H            1 TCL222   0.0000
    22 H5         -17.9730    -1.1659    30.3167 H            1 TCL222   0.0000
    23 H6         -16.3954    -2.5245    31.4855 H            1 TCL222   0.0000
    24 H7         -17.5263    -5.4958    33.6684 H            1 TCL222   0.0000
@<TRIPOS>BOND
     1    1    2      ar
     2    1    3      ar
     3    2    6      ar
     4    2   14       1
     5    3    4      ar
     6    3   17       1
     7    4    5      ar
     8    4   13       1
     9    5    6      ar
    10    7    8      ar
    11    7   11      ar
    12    7   15       1
    13    8    9      ar
    14    9   10      ar
    15    9   16       1
    16   10   12      ar
    17   10   13       1
    18   11   12      ar
    19    1   18       1
    20    5   19       1
    21    6   20       1
    22    8   21       1
    23   11   22       1
    24   12   23       1
    25   17   24       1
@<TRIPOS>SUBSTRUCTURE
     1 TCL222      1 GROUP             4 A     TCL     0 **** TCL A 222
