@<TRIPOS>MOLECULE
3a7j_ADP_1_ligand
   39    41     1     0     0
SMALL
NO_CHARGES


@<TRIPOS>ATOM
     1 PB           4.4400    21.3990    21.7170 P.3          1 ADP500   0.0000
     2 O1B          5.5440    22.3680    21.9220 O.co2        1 ADP500   0.0000
     3 O2B          4.6470    20.0320    21.4050 O.co2        1 ADP500  -1.0000
     4 O3B          3.3890    21.5410    23.0660 O.co2        1 ADP500  -1.0000
     5 PA           3.4570    22.2730    18.7760 P.3          1 ADP500   0.0000
     6 O1A          3.8660    23.6970    18.5420 O.co2        1 ADP500   0.0000
     7 O2A          4.1780    21.2810    17.9320 O.co2        1 ADP500  -1.0000
     8 O3A          3.4220    21.9930    20.4630 O.3          1 ADP500   0.0000
     9 O5'          1.9030    21.9150    18.5050 O.3          1 ADP500   0.0000
    10 C5'          1.2470    20.5810    18.6170 C.3          1 ADP500   0.0000
    11 C4'         -0.0210    20.7300    17.7840 C.3          1 ADP500   0.0000
    12 O4'         -0.8310    21.7920    18.0780 O.3          1 ADP500   0.0000
    13 C3'          0.2670    20.9060    16.2610 C.3          1 ADP500   0.0000
    14 O3'          1.0070    19.8160    15.7650 O.3          1 ADP500   0.0000
    15 C2'         -1.1550    21.1260    15.8780 C.3          1 ADP500   0.0000
    16 O2'         -1.8880    19.9460    15.7730 O.3          1 ADP500   0.0000
    17 C1'         -1.6610    22.1710    16.9880 C.3          1 ADP500   0.0000
    18 N9          -1.1740    23.5470    16.6970 N.pl3        1 ADP500   0.0000
    19 C8          -0.0690    24.2380    17.2040 C.2          1 ADP500   0.0000
    20 N7           0.0990    25.4040    16.7590 N.2          1 ADP500   0.0000
    21 C5          -0.9700    25.5690    15.9150 C.ar         1 ADP500   0.0000
    22 C6          -1.4040    26.6490    15.1070 C.ar         1 ADP500   0.0000
    23 N6          -0.7390    27.8210    15.0380 N.pl3        1 ADP500   0.0000
    24 N1          -2.5470    26.4690    14.3910 N.ar         1 ADP500   0.0000
    25 C2          -3.2490    25.3070    14.4210 C.ar         1 ADP500   0.0000
    26 N3          -2.9280    24.2170    15.1210 N.ar         1 ADP500   0.0000
    27 C4          -1.7640    24.4230    15.8560 C.ar         1 ADP500   0.0000
    28 H5'1         1.0253    20.3716    19.5694 H            1 ADP500   0.0000
    29 H5'2         1.8350    19.8623    18.2458 H            1 ADP500   0.0000
    30 H4'         -0.5599    19.8953    17.8976 H            1 ADP500   0.0000
    31 H3'          0.7834    21.7501    16.1168 H            1 ADP500   0.0000
    32 H5           0.7823    18.9945    16.2891 H            1 ADP500   0.0000
    33 H2'         -1.1713    21.5833    14.9888 H            1 ADP500   0.0000
    34 H7          -2.2986    19.7287    16.6586 H            1 ADP500   0.0000
    35 H1'         -2.6404    22.1173    17.1828 H            1 ADP500   0.0000
    36 H9           0.5487    23.8319    17.8774 H            1 ADP500   0.0000
    37 H10         -1.0818    28.5568    14.4540 H            1 ADP500   0.0000
    38 H11          0.0967    27.9538    15.5709 H            1 ADP500   0.0000
    39 H12         -4.0816    25.2641    13.8688 H            1 ADP500   0.0000
@<TRIPOS>BOND
     1    1    2      ar
     2    1    3      ar
     3    1    4      ar
     4    1    8       1
     5    5    6      ar
     6    5    7      ar
     7    5    8       1
     8    5    9       1
     9    9   10       1
    10   10   11       1
    11   11   12       1
    12   11   13       1
    13   12   17       1
    14   13   14       1
    15   13   15       1
    16   15   16       1
    17   15   17       1
    18   17   18       1
    19   18   19       1
    20   18   27       1
    21   19   20       2
    22   20   21       1
    23   21   22      ar
    24   21   27      ar
    25   22   23       1
    26   22   24      ar
    27   24   25      ar
    28   25   26      ar
    29   26   27      ar
    30   25   39       1
    31   23   38       1
    32   23   37       1
    33   10   28       1
    34   10   29       1
    35   11   30       1
    36   13   31       1
    37   14   32       1
    38   15   33       1
    39   16   34       1
    40   17   35       1
    41   19   36       1
@<TRIPOS>SUBSTRUCTURE
     1 ADP500      1 GROUP             4 A     ADP     0 **** ADP A 500
