@<TRIPOS>MOLECULE
./coach420/1p4n/ligand.pdb
 76 78 0 0 0
SMALL
GASTEIGER

@<TRIPOS>ATOM
      1  N1        23.1960   -6.0180   17.0890 N.ar  336  ALA336     -0.2534
      2  C2        22.0950   -6.5280   17.8420 C.ar  336  ALA336      0.3546
      3  N3        21.8220   -7.8600   17.6520 N.ar  336  ALA336     -0.1530
      4  C4        22.5000   -8.7270   16.8190 C.ar  336  ALA336      0.2846
      5  C5        23.6270   -8.1650   16.0550 C.ar  336  ALA336      0.0814
      6  C6        23.9420   -6.8380   16.2080 C.ar  336  ALA336      0.0870
      7  O2        21.4150   -5.8600   18.6230 O.2   336  ALA336     -0.2443
      8  O4        22.1050   -9.8830   16.7870 O.2   336  ALA336     -0.2650
      9  C1B       23.4490   -4.5980   17.3580 C.3   336  ALA336      0.2421
     10  C2B       24.8330   -4.2480   17.8530 C.3   336  ALA336      0.2338
     11  O2'       24.7230   -4.2760   19.3350 O.3   336  ALA336     -0.2155
     12  C3B       25.0550   -2.8540   17.3290 C.3   336  ALA336      0.2161
     13  C4B       24.0950   -2.6380   16.1620 C.3   336  ALA336      0.1801
     14  O4B       23.0850   -3.6870   16.3050 O.3   336  ALA336     -0.3306
     15  O3B       24.6620   -1.8890   18.2750 O.3   336  ALA336     -0.2175
     16  C5B       24.8490   -2.6310   14.8230 C.3   336  ALA336      0.1813
     17  O5B       25.7360   -1.4800   14.8660 O.3   336  ALA336     -0.3112
     18  PA        26.1830   -0.5910   13.6530 P.3   336  ALA336      0.2189
     19  O1A       24.9800   -0.3120   12.8510 O.2   336  ALA336     -0.5170
     20  O2A       26.9190    0.5830   14.1510 O.3   336  ALA336     -0.4371
     21  O3A       27.2090   -1.5600   12.8580 O.3   336  ALA336     -0.2703
     22  PB        28.1820   -1.2200   11.6610 P.3   336  ALA336      0.2208
     23  O1B       27.6050   -0.0720   10.9360 O.3   336  ALA336     -0.4371
     24  O2B       28.4630   -2.4970   10.9320 O.2   336  ALA336     -0.5170
     25  O1'       29.5050   -0.7000   12.4490 O.3   336  ALA336     -0.2864
     26  C1'       30.3230   -1.6350   13.2100 C.3   336  ALA336      0.2632
     27  C2'       30.7630   -0.9780   14.5350 C.3   336  ALA336      0.1813
     28  N2'       29.5960   -0.7330   15.3800 N.am  336  ALA336     -0.1994
     29  C7'       29.5490   -1.2130   16.6390 C.2   336  ALA336      0.2420
     30  O7'       30.4670   -1.8710   17.1570 O.2   336  ALA336     -0.2733
     31  C8'       28.3050   -0.9220   17.4450 C.3   336  ALA336      0.0964
     32  C3'       31.5280    0.3370   14.1770 C.3   336  ALA336      0.1733
     33  O3'       31.9890    1.0060   15.3680 O.3   336  ALA336     -0.3449
     34  C4'       32.7320   -0.0050   13.2960 C.3   336  ALA336      0.2103
     35  O4'       33.4470    1.1710   12.9610 O.3   336  ALA336     -0.2178
     36  C5'       32.2560   -0.7080   12.0210 C.3   336  ALA336      0.1833
     37  O5'       31.4840   -1.9190   12.3710 O.3   336  ALA336     -0.3260
     38  C6'       33.4160   -1.1240   11.1110 C.3   336  ALA336      0.2142
     39  O6'       34.3180   -1.9980   11.7790 O.3   336  ALA336     -0.2176
     40  C18       31.4590    2.2020   15.9820 C.3   336  ALA336      0.1926
     41  C19       30.9860    1.9770   17.3830 C.2   336  ALA336      0.2689
     42  O18       29.7740    1.9650   17.6550 O.2   336  ALA336     -0.2707
     43  C20       32.4640    3.3330   15.7660 C.3   336  ALA336      0.0421
     44  N4        31.9760    1.7940   18.2620 N.am  336  ALA336     -0.1957
     45  C21       31.7820    1.4510   19.6670 C.3   336  ALA336      0.1729
     46  C22       31.7180    2.6650   20.6180 C.2   336  ALA336      0.2616
     47  O20       31.5180    2.4420   21.8130 O.2   336  ALA336     -0.2715
     48  C23       32.8890    0.5010   20.1080 C.3   336  ALA336      0.0334
     49  N         31.7870    3.9010   20.1270 N.am  337  FGA337     -0.1977
     50  CA        31.6440    5.0590   21.0030 C.3   337  FGA337      0.1598
     51  C         33.0340    5.4990   21.4080 C.2   337  FGA337      0.2287
     52  O         33.7100    6.0250   20.5000 O.2   337  FGA337     -0.2864
     53  CB        30.9150    6.2060   20.3010 C.3   337  FGA337      0.0338
     54  CG        29.5250    5.8380   19.8270 C.3   337  FGA337      0.0536
     55  CD        29.5000    4.5030   19.1110 C.3   337  FGA337      0.2260
     56  OE1       29.6600    4.5160   17.8920 O.3   337  FGA337     -0.2036
     57  N         28.3560    4.1510   19.6810 N.3   338  LYS338     -0.1814
     58  CA        27.1920    3.7530   18.9080 C.3   338  LYS338      0.1529
     59  C         26.3370    4.8570   18.3080 C.2   338  LYS338      0.2577
     60  O         26.3450    6.0000   18.7660 O.2   338  LYS338     -0.2718
     61  CB        26.3330    2.8310   19.7730 C.3   338  LYS338      0.0269
     62  CG        27.1350    1.6880   20.3810 C.3   338  LYS338      0.0035
     63  CD        26.3290    0.8840   21.3810 C.3   338  LYS338      0.0206
     64  CE        27.1800   -0.2130   22.0020 C.3   338  LYS338      0.1093
     65  NZ        26.4160   -1.0020   23.0050 N.3   338  LYS338     -0.1314
     66  N         25.5970    4.4860   17.2680 N.am  339  DAL339     -0.1966
     67  CA        24.7110    5.4030   16.5660 C.3   339  DAL339      0.1728
     68  CB        23.2640    5.0310   16.8410 C.3   339  DAL339      0.0334
     69  C         24.9910    5.3520   15.0660 C.2   339  DAL339      0.2617
     70  O         26.1450    5.2810   14.6390 O.2   339  DAL339     -0.2715
     71  N         23.9230    5.3890   14.2750 N.am  340  DAL340     -0.1942
     72  CA        24.0270    5.3420   12.8190 C.3   340  DAL340      0.1979
     73  CB        24.5560    3.9920   12.3710 C.3   340  DAL340      0.0356
     74  C         24.9340    6.4490   12.3030 C.2   340  DAL340      0.3842
     75  O         25.8540    6.1260   11.5190 O.co2 340  DAL340     -0.2437
     76  OXT       24.7010    7.6180   12.6760 O.co2 340  DAL340     -0.2437
@<TRIPOS>BOND
     1     1     6   ar
     2     1     9    1
     3     1     2   ar
     4     2     3   ar
     5     2     7    2
     6     3     4   ar
     7     4     5   ar
     8     4     8    2
     9     5     6   ar
    10     9    14    1
    11     9    10    1
    12    10    12    1
    13    10    11    1
    14    12    13    1
    15    12    15    1
    16    13    16    1
    17    13    14    1
    18    16    17    1
    19    17    18    1
    20    18    19    2
    21    18    21    1
    22    18    20    1
    23    21    22    1
    24    22    24    2
    25    22    23    1
    26    22    25    1
    27    25    26    1
    28    26    37    1
    29    26    27    1
    30    27    32    1
    31    27    28    1
    32    28    29   am
    33    29    30    2
    34    29    31    1
    35    32    34    1
    36    32    33    1
    37    33    40    1
    38    34    36    1
    39    34    35    1
    40    36    38    1
    41    36    37    1
    42    38    39    1
    43    40    43    1
    44    40    41    1
    45    41    42    2
    46    41    44   am
    47    44    45    1
    48    45    48    1
    49    45    46    1
    50    46    49   am
    51    46    47    2
    52    49    50    1
    53    50    53    1
    54    50    51    1
    55    51    52    2
    56    53    54    1
    57    54    55    1
    58    55    56    1
    59    55    57    1
    60    57    58    1
    61    58    59    1
    62    58    61    1
    63    59    66   am
    64    59    60    2
    65    61    62    1
    66    62    63    1
    67    63    64    1
    68    64    65    1
    69    66    67    1
    70    67    69    1
    71    67    68    1
    72    69    71   am
    73    69    70    2
    74    71    72    1
    75    72    74    1
    76    72    73    1
    77    74    75   ar
    78    74    76   ar
