@<TRIPOS>MOLECULE
3a8i_C2F_3_ligand
   56    58     1     0     0
SMALL
NO_CHARGES


@<TRIPOS>ATOM
     1 N1           7.7960    14.5120    35.9370 N.2          1 C2F401   0.0000
     2 C2           8.1880    15.7560    36.3260 C.2          1 C2F401   0.0000
     3 NA2          7.4700    16.7730    35.9310 N.pl3        1 C2F401   0.0000
     4 N3           9.2210    15.9990    37.1450 N.pl3        1 C2F401   0.0000
     5 C4           9.9230    14.9710    37.6030 C.2          1 C2F401   0.0000
     6 O4          10.9980    15.2670    38.3670 O.2          1 C2F401   0.0000
     7 C4A          9.5770    13.6510    37.2100 C.2          1 C2F401   0.0000
     8 N5          10.2780    12.4910    37.5430 N.pl3        1 C2F401   0.0000
     9 C6           9.6510    11.1440    37.6930 C.3          1 C2F401   0.0000
    10 C7           8.8740    10.9850    36.3840 C.3          1 C2F401   0.0000
    11 N8           8.1340    12.2070    35.9590 N.pl3        1 C2F401   0.0000
    12 C8A          8.5110    13.4550    36.3480 C.2          1 C2F401   0.0000
    13 C9           8.6660    11.3790    38.7860 C.3          1 C2F401   0.0000
    14 N10          9.0560    10.8800    40.1090 N.pl3        1 C2F401   0.0000
    15 C11         11.6870    12.4760    37.4940 C.3          1 C2F401   0.0000
    16 C12          7.5960    13.3120    43.1290 C.ar         1 C2F401   0.0000
    17 C13          8.2390    12.1010    43.4500 C.ar         1 C2F401   0.0000
    18 C14          8.7560    11.2610    42.4510 C.ar         1 C2F401   0.0000
    19 C15          8.5990    11.6470    41.1230 C.ar         1 C2F401   0.0000
    20 C16          7.9410    12.8430    40.8030 C.ar         1 C2F401   0.0000
    21 C17          7.4350    13.6900    41.8030 C.ar         1 C2F401   0.0000
    22 C            7.0520    14.1700    44.2350 C.2          1 C2F401   0.0000
    23 O            6.9160    15.3700    44.0380 O.2          1 C2F401   0.0000
    24 N            6.6690    13.5000    45.3620 N.am         1 C2F401   0.0000
    25 CA           6.1140    14.0000    46.6290 C.3          1 C2F401   0.0000
    26 CB           4.5800    13.9720    46.4400 C.3          1 C2F401   0.0000
    27 CG           3.7380    14.7440    47.4680 C.3          1 C2F401   0.0000
    28 CD           2.4110    15.2220    46.8940 C.2          1 C2F401   0.0000
    29 OE1          2.0430    16.3460    47.2870 O.co2        1 C2F401   0.0000
    30 OE2          1.7130    14.5460    46.0800 O.co2        1 C2F401  -1.0000
    31 CT           6.5390    13.0440    47.7240 C.2          1 C2F401   0.0000
    32 O1           7.7540    12.7950    47.8620 O.co2        1 C2F401   0.0000
    33 O2           5.6870    12.4650    48.4480 O.co2        1 C2F401  -1.0000
    34 HA21         7.7286    17.7014    36.1980 H            1 C2F401   0.0000
    35 HA22         6.6617    16.6233    35.3616 H            1 C2F401   0.0000
    36 H3          10.3008    10.4066    37.8772 H            1 C2F401   0.0000
    37 H4           8.2136    10.2431    36.4997 H            1 C2F401   0.0000
    38 H5           9.5225    10.7443    35.6619 H            1 C2F401   0.0000
    39 H6           7.3336    12.1062    35.3681 H            1 C2F401   0.0000
    40 H7           7.8090    10.9323    38.5291 H            1 C2F401   0.0000
    41 H8           8.5185    12.3653    38.8604 H            1 C2F401   0.0000
    42 H9           9.6047    10.0554    40.2466 H            1 C2F401   0.0000
    43 H10         12.0202    11.5719    37.7616 H            1 C2F401   0.0000
    44 H11         11.9904    12.6810    36.5635 H            1 C2F401   0.0000
    45 H12         12.0497    13.1644    38.1222 H            1 C2F401   0.0000
    46 H13          8.3292    11.8338    44.4094 H            1 C2F401   0.0000
    47 H14          9.2239    10.4093    42.6869 H            1 C2F401   0.0000
    48 H15          7.8295    13.0985    39.8426 H            1 C2F401   0.0000
    49 H16          6.9707    14.5433    41.5657 H            1 C2F401   0.0000
    50 H17          6.7848    12.5077    45.3186 H            1 C2F401   0.0000
    51 HA           6.4347    14.9279    46.8192 H            1 C2F401   0.0000
    52 HB1          4.2896    13.0155    46.4689 H            1 C2F401   0.0000
    53 HB2          4.3799    14.3540    45.5378 H            1 C2F401   0.0000
    54 HG1          4.2591    15.5397    47.7767 H            1 C2F401   0.0000
    55 HG2          3.5532    14.1442    48.2465 H            1 C2F401   0.0000
    56 H23          9.4573    16.9352    37.4051 H            1 C2F401   0.0000
@<TRIPOS>BOND
     1    1    2       2
     2    1   12       1
     3    2    3       1
     4    2    4       1
     5    4    5       1
     6    5    6       2
     7    5    7       1
     8    7    8       1
     9    7   12       2
    10    8    9       1
    11    8   15       1
    12    9   10       1
    13    9   13       1
    14   10   11       1
    15   11   12       1
    16   13   14       1
    17   14   19       1
    18   16   17      ar
    19   16   21      ar
    20   16   22       1
    21   17   18      ar
    22   18   19      ar
    23   19   20      ar
    24   20   21      ar
    25   22   23       2
    26   22   24      am
    27   24   25       1
    28   25   26       1
    29   25   31       1
    30   26   27       1
    31   27   28       1
    32   28   29      ar
    33   28   30      ar
    34   31   32      ar
    35   31   33      ar
    36    4   56       1
    37    3   34       1
    38    3   35       1
    39    9   36       1
    40   10   37       1
    41   10   38       1
    42   11   39       1
    43   13   40       1
    44   13   41       1
    45   14   42       1
    46   15   43       1
    47   15   44       1
    48   15   45       1
    49   17   46       1
    50   18   47       1
    51   20   48       1
    52   21   49       1
    53   24   50       1
    54   25   51       1
    55   26   52       1
    56   26   53       1
    57   27   54       1
    58   27   55       1
@<TRIPOS>SUBSTRUCTURE
     1 C2F401      1 GROUP             4 C     C2F     0 **** C2F C 401
