@<TRIPOS>MOLECULE
5agy_GTB_3_ligand
   51    51     1     0     0
SMALL
NO_CHARGES


@<TRIPOS>ATOM
     1 N1          25.0820    -0.0020     7.2550 N.4          1 GTB1222   1.0000
     2 CA1         24.2280     0.5060     8.3270 C.3          1 GTB1222   0.0000
     3 C1          24.9650     1.5330     9.1120 C.2          1 GTB1222   0.0000
     4 O11         26.2050     1.4630     9.1800 O.co2        1 GTB1222   0.0000
     5 O12         24.3470     2.4710     9.7070 O.co2        1 GTB1222  -1.0000
     6 CB1         23.7950    -0.6310     9.2460 C.3          1 GTB1222   0.0000
     7 CG1         22.8520    -0.2570    10.3600 C.3          1 GTB1222   0.0000
     8 CD1         22.0610    -1.4120    10.9610 C.2          1 GTB1222   0.0000
     9 OE1         22.3630    -2.5870    10.6940 O.2          1 GTB1222   0.0000
    10 N2          20.9540    -1.1000    11.8180 N.am         1 GTB1222   0.0000
    11 CA2         20.1430    -2.1700    12.4200 C.3          1 GTB1222   0.0000
    12 C2          18.7240    -1.9110    12.0590 C.2          1 GTB1222   0.0000
    13 O2          18.2630    -0.7960    12.1160 O.2          1 GTB1222   0.0000
    14 CB2         20.3060    -2.2350    13.9400 C.3          1 GTB1222   0.0000
    15 SG2         21.9740    -2.6520    14.4610 S.3          1 GTB1222   0.0000
    16 N3          17.9280    -3.0410    11.6680 N.am         1 GTB1222   0.0000
    17 CA3         16.5380    -2.8630    11.3130 C.3          1 GTB1222   0.0000
    18 C3          16.0670    -3.6870    10.1560 C.2          1 GTB1222   0.0000
    19 O31         16.9160    -4.2520     9.4130 O.co2        1 GTB1222   0.0000
    20 O32         14.8360    -3.8120     9.9300 O.co2        1 GTB1222  -1.0000
    21 C'          22.2270    -4.3930    14.1050 C.3          1 GTB1222   0.0000
    22 C1'         21.4140    -5.2390    15.0580 C.ar         1 GTB1222   0.0000
    23 C2'         20.1720    -5.7220    14.6810 C.ar         1 GTB1222   0.0000
    24 C3'         19.4310    -6.4710    15.5850 C.ar         1 GTB1222   0.0000
    25 C4'         19.9540    -6.7070    16.8430 C.ar         1 GTB1222   0.0000
    26 N41         19.2240    -7.4870    17.8200 N.2          1 GTB1222   1.0000
    27 O41         17.9620    -7.8540    17.5820 O.co2        1 GTB1222   0.0000
    28 O42         19.8420    -7.8030    18.9490 O.co2        1 GTB1222  -1.0000
    29 C5'         21.1850    -6.2140    17.2160 C.ar         1 GTB1222   0.0000
    30 C6'         21.9200    -5.4620    16.3190 C.ar         1 GTB1222   0.0000
    31 H1          24.5833    -0.6917     6.7300 H            1 GTB1222   0.0000
    32 H2          25.3435     0.7515     6.6517 H            1 GTB1222   0.0000
    33 HA1         23.4150     0.9261     7.9239 H            1 GTB1222   0.0000
    34 HB11        24.6180    -1.0205     9.6596 H            1 GTB1222   0.0000
    35 HB12        23.3445    -1.3243     8.6836 H            1 GTB1222   0.0000
    36 HG11        22.1994     0.4102    10.0010 H            1 GTB1222   0.0000
    37 HG12        23.3894     0.1627    11.0915 H            1 GTB1222   0.0000
    38 H8          20.7308    -0.1441    12.0086 H            1 GTB1222   0.0000
    39 HA2         20.4216    -3.0465    12.0273 H            1 GTB1222   0.0000
    40 HB21        19.6798    -2.9283    14.2967 H            1 GTB1222   0.0000
    41 HB22        20.0681    -1.3423    14.3228 H            1 GTB1222   0.0000
    42 H12         18.3365    -3.9534    11.6413 H            1 GTB1222   0.0000
    43 HA31        16.3977    -1.8996    11.0845 H            1 GTB1222   0.0000
    44 HA32        15.9821    -3.1011    12.1094 H            1 GTB1222   0.0000
    45 H'1         23.1964    -4.6150    14.2097 H            1 GTB1222   0.0000
    46 H'2         21.9408    -4.5840    13.1661 H            1 GTB1222   0.0000
    47 H2'         19.8127    -5.5332    13.7671 H            1 GTB1222   0.0000
    48 H3'         18.5344    -6.8336    15.3307 H            1 GTB1222   0.0000
    49 H5'         21.5448    -6.3991    18.1305 H            1 GTB1222   0.0000
    50 H6'         22.8078    -5.0847    16.5824 H            1 GTB1222   0.0000
    51 H21         25.9035    -0.4133     7.6499 H            1 GTB1222   0.0000
@<TRIPOS>BOND
     1    1    2       1
     2    2    3       1
     3    2    6       1
     4    3    4      ar
     5    3    5      ar
     6    6    7       1
     7    7    8       1
     8    8    9       2
     9    8   10      am
    10   10   11       1
    11   11   12       1
    12   11   14       1
    13   12   13       2
    14   12   16      am
    15   14   15       1
    16   15   21       1
    17   16   17       1
    18   17   18       1
    19   18   19      ar
    20   18   20      ar
    21   21   22       1
    22   22   23      ar
    23   22   30      ar
    24   23   24      ar
    25   24   25      ar
    26   25   26       1
    27   25   29      ar
    28   26   27      ar
    29   26   28      ar
    30   29   30      ar
    31    1   31       1
    32    1   32       1
    33    2   33       1
    34    1   51       1
    35    6   34       1
    36    6   35       1
    37    7   36       1
    38    7   37       1
    39   10   38       1
    40   11   39       1
    41   14   40       1
    42   14   41       1
    43   16   42       1
    44   17   43       1
    45   17   44       1
    46   30   50       1
    47   21   45       1
    48   21   46       1
    49   23   47       1
    50   24   48       1
    51   29   49       1
@<TRIPOS>SUBSTRUCTURE
     1 GTB1222     1 GROUP             4 A     GTB     0 **** GTB A1222
