@<TRIPOS>MOLECULE
2c91_NAP_6_ligand
   73    77     1     0     0
SMALL
NO_CHARGES


@<TRIPOS>ATOM
     1 PA          14.3390    16.2920    54.7110 P.3          1 NAP350   0.0000
     2 O1A         13.5970    16.5650    55.9880 O.co2        1 NAP350   0.0000
     3 O2A         13.6760    16.6110    53.4260 O.co2        1 NAP350  -1.0000
     4 O5B         14.7170    14.7650    54.7370 O.3          1 NAP350   0.0000
     5 C5B         15.3610    14.2310    53.5900 C.3          1 NAP350   0.0000
     6 C4B         15.2670    12.7280    53.5910 C.3          1 NAP350   0.0000
     7 O4B         13.9000    12.3080    53.5800 O.3          1 NAP350   0.0000
     8 C3B         15.9560    12.1250    52.3730 C.3          1 NAP350   0.0000
     9 O3B         17.2990    11.9170    52.6210 O.3          1 NAP350   0.0000
    10 C2B         15.1570    10.8660    52.2170 C.3          1 NAP350   0.0000
    11 O2B         15.6540     9.9790    53.1760 O.3          1 NAP350   0.0000
    12 C1B         13.7300    11.3310    52.6010 C.3          1 NAP350   0.0000
    13 N9A         13.0540    11.9490    51.4390 N.pl3        1 NAP350   0.0000
    14 C8A         13.2090    13.1920    50.8770 C.2          1 NAP350   0.0000
    15 N7A         12.4120    13.2790    49.7930 N.2          1 NAP350   0.0000
    16 C5A         11.7460    12.0920    49.6590 C.ar         1 NAP350   0.0000
    17 C6A         10.8000    11.6230    48.7130 C.ar         1 NAP350   0.0000
    18 N6A         10.1880    12.4280    47.8230 N.pl3        1 NAP350   0.0000
    19 N1A         10.3270    10.3680    48.8860 N.ar         1 NAP350   0.0000
    20 C2A         10.7670     9.5360    49.9240 C.ar         1 NAP350   0.0000
    21 N3A         11.7010    10.0080    50.8380 N.ar         1 NAP350   0.0000
    22 C4A         12.1550    11.2700    50.6900 C.ar         1 NAP350   0.0000
    23 O3          15.6120    17.2840    54.6740 O.3          1 NAP350   0.0000
    24 PN          17.0940    16.8650    55.2620 P.3          1 NAP350   0.0000
    25 O1N         17.9630    16.1730    54.3040 O.co2        1 NAP350   0.0000
    26 O2N         16.9610    16.4660    56.6820 O.co2        1 NAP350  -1.0000
    27 O5D         17.7850    18.3100    55.2300 O.3          1 NAP350   0.0000
    28 C5D         17.9510    19.1050    54.1280 C.3          1 NAP350   0.0000
    29 C4D         19.4060    19.6180    54.1490 C.3          1 NAP350   0.0000
    30 O4D         19.6160    20.5170    55.2460 O.3          1 NAP350   0.0000
    31 C3D         20.5020    18.5700    54.2340 C.3          1 NAP350   0.0000
    32 O3D         20.7810    17.8490    53.0610 O.3          1 NAP350   0.0000
    33 C2D         21.6590    19.3870    54.7340 C.3          1 NAP350   0.0000
    34 O2D         22.2470    20.0870    53.6990 O.3          1 NAP350   0.0000
    35 C1D         20.9750    20.3690    55.7120 C.3          1 NAP350   0.0000
    36 N1N         20.9130    19.9410    57.1600 N.ar         1 NAP350   1.0000
    37 C2N         21.5070    20.7220    58.0820 C.ar         1 NAP350   0.0000
    38 C3N         21.4010    20.4080    59.4310 C.ar         1 NAP350   0.0000
    39 C7N         22.0630    21.2930    60.4390 C.2          1 NAP350   0.0000
    40 O7N         22.1700    20.8810    61.7820 O.2          1 NAP350   0.0000
    41 N7N         22.5110    22.4370    59.9910 N.am         1 NAP350   0.0000
    42 C4N         20.7190    19.2990    59.8600 C.ar         1 NAP350   0.0000
    43 C5N         20.0980    18.4940    58.8880 C.ar         1 NAP350   0.0000
    44 C6N         20.1730    18.8410    57.5470 C.ar         1 NAP350   0.0000
    45 P2B         15.7750     8.4010    52.9930 P.3          1 NAP350   0.0000
    46 O1X         17.1090     8.0550    53.6130 O.co2        1 NAP350   0.0000
    47 O2X         14.6950     7.5560    53.6680 O.co2        1 NAP350  -1.0000
    48 O3X         15.6160     8.0510    51.5450 O.co2        1 NAP350  -1.0000
    49 H5B1        16.3237    14.5015    53.5962 H            1 NAP350   0.0000
    50 H5B2        14.9195    14.5887    52.7671 H            1 NAP350   0.0000
    51 H4B         15.7065    12.3771    54.4179 H            1 NAP350   0.0000
    52 H3B         15.8356    12.7161    51.5754 H            1 NAP350   0.0000
    53 H5          17.4022    11.2896    53.3928 H            1 NAP350   0.0000
    54 H2B         15.2032    10.4944    51.2898 H            1 NAP350   0.0000
    55 H1B         13.1930    10.5657    52.9557 H            1 NAP350   0.0000
    56 H8A         13.8130    13.9134    51.2156 H            1 NAP350   0.0000
    57 H6A1         9.5275    12.0472    47.1759 H            1 NAP350   0.0000
    58 H6A2        10.3942    13.4064    47.8094 H            1 NAP350   0.0000
    59 H2A         10.4100     8.6056    50.0067 H            1 NAP350   0.0000
    60 H5D1        17.3154    19.8763    54.1633 H            1 NAP350   0.0000
    61 H5D2        17.7866    18.5754    53.2958 H            1 NAP350   0.0000
    62 H4D         19.5524    20.1358    53.3061 H            1 NAP350   0.0000
    63 H3D         20.2518    17.9163    54.9482 H            1 NAP350   0.0000
    64 H16         20.2084    17.0298    53.0291 H            1 NAP350   0.0000
    65 H2D         22.3277    18.8136    55.2074 H            1 NAP350   0.0000
    66 H18         22.6392    20.9366    54.0517 H            1 NAP350   0.0000
    67 H1D         21.4350    21.2551    55.6557 H            1 NAP350   0.0000
    68 H2N         22.0246    21.5283    57.7956 H            1 NAP350   0.0000
    69 H7N1        22.9640    23.0750    60.6137 H            1 NAP350   0.0000
    70 H7N2        22.4006    22.6738    59.0257 H            1 NAP350   0.0000
    71 H4N         20.6648    19.0699    60.8319 H            1 NAP350   0.0000
    72 H5N         19.6019    17.6707    59.1639 H            1 NAP350   0.0000
    73 H6N         19.6917    18.2952    56.8611 H            1 NAP350   0.0000
@<TRIPOS>BOND
     1    1    2      ar
     2    1    3      ar
     3    1    4       1
     4    1   23       1
     5    4    5       1
     6    5    6       1
     7    6    7       1
     8    6    8       1
     9    7   12       1
    10    8    9       1
    11    8   10       1
    12   10   11       1
    13   10   12       1
    14   11   45       1
    15   12   13       1
    16   13   14       1
    17   13   22       1
    18   14   15       2
    19   15   16       1
    20   16   17      ar
    21   16   22      ar
    22   17   18       1
    23   17   19      ar
    24   19   20      ar
    25   20   21      ar
    26   21   22      ar
    27   23   24       1
    28   24   25      ar
    29   24   26      ar
    30   24   27       1
    31   27   28       1
    32   28   29       1
    33   29   30       1
    34   29   31       1
    35   30   35       1
    36   31   32       1
    37   31   33       1
    38   33   34       1
    39   33   35       1
    40   35   36       1
    41   36   37      ar
    42   36   44      ar
    43   37   38      ar
    44   38   39       1
    45   38   42      ar
    46   39   40       2
    47   39   41      am
    48   42   43      ar
    49   43   44      ar
    50   45   46      ar
    51   45   47      ar
    52   45   48      ar
    53   43   72       1
    54    5   49       1
    55    5   50       1
    56    6   51       1
    57    8   52       1
    58    9   53       1
    59   10   54       1
    60   12   55       1
    61   14   56       1
    62   18   57       1
    63   18   58       1
    64   20   59       1
    65   44   73       1
    66   28   60       1
    67   28   61       1
    68   29   62       1
    69   31   63       1
    70   32   64       1
    71   33   65       1
    72   34   66       1
    73   35   67       1
    74   37   68       1
    75   41   69       1
    76   41   70       1
    77   42   71       1
@<TRIPOS>SUBSTRUCTURE
     1 NAP350      1 GROUP             4 F     NAP     0 **** NAP F 350
