@<TRIPOS>MOLECULE
2a5y_ATP_1_ligand
   43    45     1     0     0
SMALL
NO_CHARGES


@<TRIPOS>ATOM
     1 PG          93.5640    46.3110    81.1840 P.3          1 ATP551   0.0000
     2 O1G         94.8930    45.9180    81.8410 O.co2        1 ATP551   0.0000
     3 O2G         92.8240    45.0950    80.5890 O.co2        1 ATP551  -1.0000
     4 O3G         92.7160    47.3400    82.0170 O.co2        1 ATP551  -1.0000
     5 PB          95.3030    46.2970    79.0000 P.3          1 ATP551   0.0000
     6 O1B         94.5660    45.0590    78.4010 O.co2        1 ATP551   0.0000
     7 O2B         96.4540    45.9310    79.9070 O.co2        1 ATP551  -1.0000
     8 O3B         94.1110    47.0580    79.8260 O.3          1 ATP551   0.0000
     9 PA          95.0840    46.7620    76.3810 P.3          1 ATP551   0.0000
    10 O1A         95.8470    45.4230    76.3380 O.co2        1 ATP551   0.0000
    11 O2A         93.5530    46.9140    76.5410 O.co2        1 ATP551  -1.0000
    12 O3A         95.6810    47.2760    77.7360 O.3          1 ATP551   0.0000
    13 O5'         95.5250    47.5800    75.1040 O.3          1 ATP551   0.0000
    14 C5'         94.9110    48.7820    74.6830 C.3          1 ATP551   0.0000
    15 C4'         94.9290    49.9540    75.6080 C.3          1 ATP551   0.0000
    16 O4'         96.3250    50.3920    75.6480 O.3          1 ATP551   0.0000
    17 C3'         94.3030    51.1420    74.8560 C.3          1 ATP551   0.0000
    18 O3'         94.6390    52.4340    75.5290 O.3          1 ATP551   0.0000
    19 C2'         95.2060    51.0630    73.6130 C.3          1 ATP551   0.0000
    20 O2'         95.2090    52.1670    72.7410 O.3          1 ATP551   0.0000
    21 C1'         96.6150    51.0560    74.2840 C.3          1 ATP551   0.0000
    22 N9          97.5290    50.2070    73.5260 N.pl3        1 ATP551   0.0000
    23 C8          98.3370    49.1220    73.9890 C.2          1 ATP551   0.0000
    24 N7          99.0830    48.5360    73.0070 N.2          1 ATP551   0.0000
    25 C5          98.7240    49.3070    71.8520 C.ar         1 ATP551   0.0000
    26 C6          99.1330    49.2060    70.5240 C.ar         1 ATP551   0.0000
    27 N6         100.0510    48.2450    70.1700 N.pl3        1 ATP551   0.0000
    28 N1          98.6230    50.0910    69.5810 N.ar         1 ATP551   0.0000
    29 C2          97.7110    51.0430    69.9760 C.ar         1 ATP551   0.0000
    30 N3          97.2210    51.2470    71.2560 N.ar         1 ATP551   0.0000
    31 C4          97.7800    50.3070    72.1490 C.ar         1 ATP551   0.0000
    32 H5'1        93.9523    48.5722    74.4912 H            1 ATP551   0.0000
    33 H5'2        95.3655    49.0655    73.8386 H            1 ATP551   0.0000
    34 H4'         94.5267    49.7765    76.5062 H            1 ATP551   0.0000
    35 H3'         93.3294    51.0290    74.6579 H            1 ATP551   0.0000
    36 H5          94.2230    53.1906    75.0246 H            1 ATP551   0.0000
    37 H2'         95.0467    50.2131    73.1107 H            1 ATP551   0.0000
    38 H7          95.8326    51.9888    71.9798 H            1 ATP551   0.0000
    39 H1'         96.9764    51.9820    74.3935 H            1 ATP551   0.0000
    40 H9          98.3541    48.8207    74.9424 H            1 ATP551   0.0000
    41 H10        100.3501    48.1654    69.2191 H            1 ATP551   0.0000
    42 H11        100.4193    47.6258    70.8635 H            1 ATP551   0.0000
    43 H12         97.3649    51.6528    69.2630 H            1 ATP551   0.0000
@<TRIPOS>BOND
     1    1    2      ar
     2    1    3      ar
     3    1    4      ar
     4    1    8       1
     5    5    6      ar
     6    5    7      ar
     7    5    8       1
     8    5   12       1
     9    9   10      ar
    10    9   11      ar
    11    9   12       1
    12    9   13       1
    13   13   14       1
    14   14   15       1
    15   15   16       1
    16   15   17       1
    17   16   21       1
    18   17   18       1
    19   17   19       1
    20   19   20       1
    21   19   21       1
    22   21   22       1
    23   22   23       1
    24   22   31       1
    25   23   24       2
    26   24   25       1
    27   25   26      ar
    28   25   31      ar
    29   26   27       1
    30   26   28      ar
    31   28   29      ar
    32   29   30      ar
    33   30   31      ar
    34   29   43       1
    35   27   42       1
    36   27   41       1
    37   23   40       1
    38   14   32       1
    39   14   33       1
    40   15   34       1
    41   17   35       1
    42   18   36       1
    43   19   37       1
    44   20   38       1
    45   21   39       1
@<TRIPOS>SUBSTRUCTURE
     1 ATP551      1 GROUP             4 B     ATP     0 **** ATP B 551
