@<TRIPOS>MOLECULE
3icp_NAD_1_ligand
   70    74     1     0     0
SMALL
NO_CHARGES


@<TRIPOS>ATOM
     1 PA           6.4560    14.1440    18.4310 P.3          1 NAD901   0.0000
     2 O1A          6.2620    14.3520    16.9790 O.co2        1 NAD901   0.0000
     3 O2A          5.2550    14.0060    19.2920 O.co2        1 NAD901  -1.0000
     4 O5B          7.4000    12.8530    18.6260 O.3          1 NAD901   0.0000
     5 C5B          7.4060    12.1290    19.8590 C.3          1 NAD901   0.0000
     6 C4B          7.2690    10.6330    19.5760 C.3          1 NAD901   0.0000
     7 O4B          7.3310     9.9230    20.8230 O.3          1 NAD901   0.0000
     8 C3B          5.8920    10.3590    18.9550 C.3          1 NAD901   0.0000
     9 O3B          5.9780     9.4390    17.8620 O.3          1 NAD901   0.0000
    10 C2B          5.1260     9.7430    20.1200 C.3          1 NAD901   0.0000
    11 O2B          4.1430     8.8180    19.6380 O.3          1 NAD901   0.0000
    12 C1B          6.2550     8.9740    20.8050 C.3          1 NAD901   0.0000
    13 N9A          5.9000     8.6090    22.1910 N.pl3        1 NAD901   0.0000
    14 C8A          5.3710     9.4290    23.1000 C.2          1 NAD901   0.0000
    15 N7A          5.1940     8.7700    24.2420 N.2          1 NAD901   0.0000
    16 C5A          5.6040     7.5220    24.0640 C.ar         1 NAD901   0.0000
    17 C6A          5.6290     6.3880    24.8660 C.ar         1 NAD901   0.0000
    18 N6A          5.1490     6.4240    26.1050 N.pl3        1 NAD901   0.0000
    19 N1A          6.0930     5.2450    24.3540 N.ar         1 NAD901   0.0000
    20 C2A          6.5240     5.1820    23.1000 C.ar         1 NAD901   0.0000
    21 N3A          6.5090     6.2370    22.3130 N.ar         1 NAD901   0.0000
    22 C4A          6.0570     7.4160    22.7560 C.ar         1 NAD901   0.0000
    23 O3           7.3290    15.3440    19.0680 O.3          1 NAD901   0.0000
    24 PN           8.7310    15.8560    18.4540 P.3          1 NAD901   0.0000
    25 O1N          8.6330    17.3190    18.2210 O.co2        1 NAD901   0.0000
    26 O2N          9.1720    14.9890    17.3420 O.co2        1 NAD901  -1.0000
    27 O5D          9.7430    15.6600    19.6950 O.3          1 NAD901   0.0000
    28 C5D         10.6340    14.5430    19.7480 C.3          1 NAD901   0.0000
    29 C4D         11.6450    14.7160    20.8850 C.3          1 NAD901   0.0000
    30 O4D         12.2880    15.9840    20.6460 O.3          1 NAD901   0.0000
    31 C3D         10.9380    14.8040    22.2390 C.3          1 NAD901   0.0000
    32 O3D         11.7510    14.2780    23.2900 O.3          1 NAD901   0.0000
    33 C2D         10.7540    16.3130    22.4060 C.3          1 NAD901   0.0000
    34 O2D         10.7410    16.6710    23.7920 O.3          1 NAD901   0.0000
    35 C1D         12.0580    16.8180    21.7930 C.3          1 NAD901   0.0000
    36 N1N         11.9850    18.2570    21.4370 N.ar         1 NAD901   1.0000
    37 C2N         11.3650    18.6630    20.2500 C.ar         1 NAD901   0.0000
    38 C3N         11.2720    20.0220    19.9460 C.ar         1 NAD901   0.0000
    39 C7N         10.6170    20.4770    18.6360 C.2          1 NAD901   0.0000
    40 O7N         10.6196    21.6571    18.3015 O.2          1 NAD901   0.0000
    41 N7N         10.0581    19.5070    17.9165 N.am         1 NAD901   0.0000
    42 C4N         11.7920    20.9680    20.8120 C.ar         1 NAD901   0.0000
    43 C5N         12.4150    20.5680    21.9950 C.ar         1 NAD901   0.0000
    44 C6N         12.5110    19.2190    22.3090 C.ar         1 NAD901   0.0000
    45 H5B1         6.6403    12.4318    20.4265 H            1 NAD901   0.0000
    46 H5B2         8.2657    12.2992    20.3407 H            1 NAD901   0.0000
    47 H4B          7.9963    10.3255    18.9624 H            1 NAD901   0.0000
    48 H3B          5.4614    11.2130    18.6630 H            1 NAD901   0.0000
    49 H5           6.3557     8.5714    18.1855 H            1 NAD901   0.0000
    50 H2B          4.7273    10.4383    20.7180 H            1 NAD901   0.0000
    51 H7           4.5950     8.0892    19.1237 H            1 NAD901   0.0000
    52 H1B          6.5048     8.1628    20.2763 H            1 NAD901   0.0000
    53 H8A          5.1427    10.3905    22.9469 H            1 NAD901   0.0000
    54 H6A1         5.1717     5.6020    26.6741 H            1 NAD901   0.0000
    55 H6A2         4.7651     7.2730    26.4680 H            1 NAD901   0.0000
    56 H2A          6.8681     4.3128    22.7450 H            1 NAD901   0.0000
    57 H5D1        11.1246    14.4720    18.8795 H            1 NAD901   0.0000
    58 H5D2        10.1058    13.7079    19.9017 H            1 NAD901   0.0000
    59 H4D         12.3138    13.9726    20.8815 H            1 NAD901   0.0000
    60 H3D         10.0529    14.3396    22.2083 H            1 NAD901   0.0000
    61 H17         12.7158    14.4137    23.0648 H            1 NAD901   0.0000
    62 H2D          9.9495    16.6530    21.9190 H            1 NAD901   0.0000
    63 H19          9.8026    16.6380    24.1360 H            1 NAD901   0.0000
    64 H1D         12.8005    16.6819    22.4489 H            1 NAD901   0.0000
    65 H2N         10.9898    17.9816    19.6216 H            1 NAD901   0.0000
    66 H7N1         9.6054    19.7236    17.0515 H            1 NAD901   0.0000
    67 H7N2        10.0907    18.5616    18.2408 H            1 NAD901   0.0000
    68 H4N         11.7212    21.9404    20.5896 H            1 NAD901   0.0000
    69 H5N         12.7927    21.2537    22.6172 H            1 NAD901   0.0000
    70 H6N         12.9558    18.9339    23.1580 H            1 NAD901   0.0000
@<TRIPOS>BOND
     1    1    2      ar
     2    1    3      ar
     3    1    4       1
     4    1   23       1
     5    4    5       1
     6    5    6       1
     7    6    7       1
     8    6    8       1
     9    7   12       1
    10    8    9       1
    11    8   10       1
    12   10   11       1
    13   10   12       1
    14   12   13       1
    15   13   14       1
    16   13   22       1
    17   14   15       2
    18   15   16       1
    19   16   17      ar
    20   16   22      ar
    21   17   18       1
    22   17   19      ar
    23   19   20      ar
    24   20   21      ar
    25   21   22      ar
    26   23   24       1
    27   24   25      ar
    28   24   26      ar
    29   24   27       1
    30   27   28       1
    31   28   29       1
    32   29   30       1
    33   29   31       1
    34   30   35       1
    35   31   32       1
    36   31   33       1
    37   33   34       1
    38   33   35       1
    39   35   36       1
    40   36   37      ar
    41   36   44      ar
    42   37   38      ar
    43   38   39       1
    44   38   42      ar
    45   39   40       2
    46   39   41      am
    47   42   43      ar
    48   43   44      ar
    49   44   70       1
    50    5   45       1
    51    5   46       1
    52    6   47       1
    53    8   48       1
    54    9   49       1
    55   10   50       1
    56   11   51       1
    57   12   52       1
    58   14   53       1
    59   18   54       1
    60   18   55       1
    61   20   56       1
    62   43   69       1
    63   28   57       1
    64   28   58       1
    65   29   59       1
    66   31   60       1
    67   32   61       1
    68   33   62       1
    69   34   63       1
    70   35   64       1
    71   37   65       1
    72   41   66       1
    73   41   67       1
    74   42   68       1
@<TRIPOS>SUBSTRUCTURE
     1 NAD901      1 GROUP             4 A     NAD     0 **** NAD A 901
