@<TRIPOS>MOLECULE
2r4t_ADP_1_ligand
   39    41     1     0     0
SMALL
NO_CHARGES


@<TRIPOS>ATOM
     1 PB           5.4230   -41.4440   -36.7950 P.3          1 ADP501   0.0000
     2 O1B          4.9020   -42.5350   -37.7050 O.co2        1 ADP501   0.0000
     3 O2B          4.5510   -40.2140   -36.5970 O.co2        1 ADP501  -1.0000
     4 O3B          6.8630   -41.0280   -37.3290 O.co2        1 ADP501  -1.0000
     5 PA           6.7740   -42.0180   -34.2320 P.3          1 ADP501   0.0000
     6 O1A          8.0500   -42.6310   -34.7350 O.co2        1 ADP501   0.0000
     7 O2A          6.1530   -42.5410   -32.9670 O.co2        1 ADP501  -1.0000
     8 O3A          5.6130   -42.1230   -35.3440 O.3          1 ADP501   0.0000
     9 O5'          7.0400   -40.4380   -34.0380 O.3          1 ADP501   0.0000
    10 C5'          6.0190   -39.4770   -33.8150 C.3          1 ADP501   0.0000
    11 C4'          6.6830   -38.2570   -33.1880 C.3          1 ADP501   0.0000
    12 O4'          5.8420   -37.1190   -33.3780 O.3          1 ADP501   0.0000
    13 C3'          6.8030   -38.4170   -31.6880 C.3          1 ADP501   0.0000
    14 O3'          7.8160   -37.5070   -31.2240 O.3          1 ADP501   0.0000
    15 C2'          5.4500   -37.9340   -31.2150 C.3          1 ADP501   0.0000
    16 O2'          5.4900   -37.5290   -29.8480 O.3          1 ADP501   0.0000
    17 C1'          5.2440   -36.7500   -32.1420 C.3          1 ADP501   0.0000
    18 N9           3.8340   -36.4000   -32.4210 N.pl3        1 ADP501   0.0000
    19 C8           2.9700   -37.0660   -33.2140 C.2          1 ADP501   0.0000
    20 N7           1.7900   -36.3960   -33.2150 N.2          1 ADP501   0.0000
    21 C5           1.9370   -35.2990   -32.4350 C.ar         1 ADP501   0.0000
    22 C6           1.0940   -34.2470   -32.0710 C.ar         1 ADP501   0.0000
    23 N6          -0.1800   -34.1970   -32.5380 N.pl3        1 ADP501   0.0000
    24 N1           1.5640   -33.2770   -31.2450 N.ar         1 ADP501   0.0000
    25 C2           2.8290   -33.3120   -30.7820 C.ar         1 ADP501   0.0000
    26 N3           3.6660   -34.3180   -31.1200 N.ar         1 ADP501   0.0000
    27 C4           3.2380   -35.3080   -31.9440 C.ar         1 ADP501   0.0000
    28 H5'1         5.3278   -39.8482   -33.1950 H            1 ADP501   0.0000
    29 H5'2         5.5887   -39.2259   -34.6821 H            1 ADP501   0.0000
    30 H4'          7.5822   -38.0996   -33.5961 H            1 ADP501   0.0000
    31 H3'          6.9866   -39.3623   -31.4184 H            1 ADP501   0.0000
    32 H5           8.6866   -37.7242   -31.6654 H            1 ADP501   0.0000
    33 H2'          4.7485   -38.6313   -31.3623 H            1 ADP501   0.0000
    34 H7           5.7194   -36.5571   -29.7949 H            1 ADP501   0.0000
    35 H1'          5.7168   -35.9512   -31.7701 H            1 ADP501   0.0000
    36 H9           3.1654   -37.9089   -33.7152 H            1 ADP501   0.0000
    37 H10         -0.7799   -33.4415   -32.2744 H            1 ADP501   0.0000
    38 H11         -0.5184   -34.9156   -33.1455 H            1 ADP501   0.0000
    39 H12          3.1533   -32.5828   -30.1794 H            1 ADP501   0.0000
@<TRIPOS>BOND
     1    1    2      ar
     2    1    3      ar
     3    1    4      ar
     4    1    8       1
     5    5    6      ar
     6    5    7      ar
     7    5    8       1
     8    5    9       1
     9    9   10       1
    10   10   11       1
    11   11   12       1
    12   11   13       1
    13   12   17       1
    14   13   14       1
    15   13   15       1
    16   15   16       1
    17   15   17       1
    18   17   18       1
    19   18   19       1
    20   18   27       1
    21   19   20       2
    22   20   21       1
    23   21   22      ar
    24   21   27      ar
    25   22   23       1
    26   22   24      ar
    27   24   25      ar
    28   25   26      ar
    29   26   27      ar
    30   25   39       1
    31   23   38       1
    32   23   37       1
    33   10   28       1
    34   10   29       1
    35   11   30       1
    36   13   31       1
    37   14   32       1
    38   15   33       1
    39   16   34       1
    40   17   35       1
    41   19   36       1
@<TRIPOS>SUBSTRUCTURE
     1 ADP501      1 GROUP             4 A     ADP     0 **** ADP A 501
