@<TRIPOS>MOLECULE
4j75_TYM_1_ligand
   61    65     1     0     0
SMALL
NO_CHARGES


@<TRIPOS>ATOM
     1 P           24.5720    12.8720    -1.7980 P.3          1 TYM701   0.0000
     2 O1P         25.8550    12.7620    -1.0060 O.co2        1 TYM701   0.0000
     3 O2P         24.5470    13.6090    -3.1280 O.co2        1 TYM701  -1.0000
     4 O5'         23.3640    13.4300    -0.8780 O.3          1 TYM701   0.0000
     5 C5'         23.2350    12.9520     0.4600 C.3          1 TYM701   0.0000
     6 C4'         21.7810    12.9860     0.9010 C.3          1 TYM701   0.0000
     7 O4'         21.2630    14.3330     0.9640 O.3          1 TYM701   0.0000
     8 C1'         20.0640    14.4270     0.1640 C.3          1 TYM701   0.0000
     9 N9          19.9990    15.7990    -0.3900 N.pl3        1 TYM701   0.0000
    10 C4          19.1090    16.7130    -0.0060 C.ar         1 TYM701   0.0000
    11 N3          18.0620    16.7200     0.8530 N.ar         1 TYM701   0.0000
    12 C2          17.3110    17.8280     1.0330 C.ar         1 TYM701   0.0000
    13 N1          17.5480    18.9870     0.3740 N.ar         1 TYM701   0.0000
    14 C6          18.5630    19.1170    -0.5170 C.ar         1 TYM701   0.0000
    15 N6          18.7820    20.2760    -1.1690 N.pl3        1 TYM701   0.0000
    16 C5          19.4290    17.9370    -0.7650 C.ar         1 TYM701   0.0000
    17 N7          20.5010    17.6530    -1.5300 N.2          1 TYM701   0.0000
    18 C8          20.8360    16.3570    -1.2880 C.2          1 TYM701   0.0000
    19 C2'         20.1650    13.2940    -0.8480 C.3          1 TYM701   0.0000
    20 O2'         18.8830    12.8840    -1.3020 O.3          1 TYM701   0.0000
    21 C3'         20.8810    12.2030    -0.0530 C.3          1 TYM701   0.0000
    22 O3'         19.9800    11.4020     0.7220 O.3          1 TYM701   0.0000
    23 NH3         24.5930     8.1910    -3.7770 N.4          1 TYM701   1.0000
    24 CA          24.2700     9.0190    -2.6350 C.3          1 TYM701   0.0000
    25 CB          24.9450     8.5660    -1.3560 C.3          1 TYM701   0.0000
    26 CG          24.2430     7.3870    -0.7650 C.2          1 TYM701   0.0000
    27 CD2         22.9020     7.3250    -0.1600 C.ar         1 TYM701   0.0000
    28 CE2         22.7430     5.9310     0.2770 C.ar         1 TYM701   0.0000
    29 CE3         21.9070     8.2580     0.0490 C.ar         1 TYM701   0.0000
    30 CD1         24.7740     6.1170    -0.6490 C.2          1 TYM701   0.0000
    31 NE1         23.8890     5.2870    -0.0410 N.pl3        1 TYM701   0.0000
    32 CZ2         21.5510     5.5560     0.9040 C.ar         1 TYM701   0.0000
    33 CZ3         20.7300     7.8340     0.6690 C.ar         1 TYM701   0.0000
    34 CH2         20.5560     6.5000     1.0780 C.ar         1 TYM701   0.0000
    35 C           24.7430    10.4130    -2.8330 C.2          1 TYM701   0.0000
    36 O           25.6810    10.7150    -3.5670 O.2          1 TYM701   0.0000
    37 OPP         24.0180    11.3840    -2.0450 O.3          1 TYM701   0.0000
    38 H5'1        23.7771    13.5304     1.0695 H            1 TYM701   0.0000
    39 H5'2        23.5710    12.0113     0.5070 H            1 TYM701   0.0000
    40 H4'         21.7142    12.5760     1.8107 H            1 TYM701   0.0000
    41 H1'         19.2678    14.2727     0.7490 H            1 TYM701   0.0000
    42 H5          16.5488    17.7910     1.6793 H            1 TYM701   0.0000
    43 H6          19.5365    20.3479    -1.8213 H            1 TYM701   0.0000
    44 H7          18.1900    21.0641    -1.0005 H            1 TYM701   0.0000
    45 H8          21.6022    15.8807    -1.7193 H            1 TYM701   0.0000
    46 H2'         20.7283    13.5775    -1.6241 H            1 TYM701   0.0000
    47 H10         18.8242    13.0096    -2.2923 H            1 TYM701   0.0000
    48 H3'         21.4289    11.6278    -0.6604 H            1 TYM701   0.0000
    49 H12         20.4167    11.1499     1.5855 H            1 TYM701   0.0000
    50 HH31        24.1195     8.5395    -4.5860 H            1 TYM701   0.0000
    51 HH32        25.5803     8.2106    -3.9344 H            1 TYM701   0.0000
    52 HA          23.2790     9.0233    -2.5009 H            1 TYM701   0.0000
    53 HB1         24.9328     9.3176    -0.6965 H            1 TYM701   0.0000
    54 HB2         25.8917     8.3149    -1.5577 H            1 TYM701   0.0000
    55 HE3         22.0254     9.2094    -0.2351 H            1 TYM701   0.0000
    56 HD1         25.6825     5.8472    -0.9681 H            1 TYM701   0.0000
    57 HE1         24.0625     4.3205     0.1482 H            1 TYM701   0.0000
    58 HZ2         21.4198     4.6172     1.2225 H            1 TYM701   0.0000
    59 HZ3         19.9947     8.4934     0.8256 H            1 TYM701   0.0000
    60 HH2         19.6933     6.2280     1.5043 H            1 TYM701   0.0000
    61 HH33        24.3023     7.2507    -3.5999 H            1 TYM701   0.0000
@<TRIPOS>BOND
     1    1    2      ar
     2    1    3      ar
     3    1    4       1
     4    1   37       1
     5    4    5       1
     6    5    6       1
     7    6    7       1
     8    6   21       1
     9    7    8       1
    10    8    9       1
    11    8   19       1
    12    9   10       1
    13    9   18       1
    14   10   11      ar
    15   10   16      ar
    16   11   12      ar
    17   12   13      ar
    18   13   14      ar
    19   14   15       1
    20   14   16      ar
    21   16   17       1
    22   17   18       2
    23   19   20       1
    24   19   21       1
    25   21   22       1
    26   23   24       1
    27   24   25       1
    28   24   35       1
    29   25   26       1
    30   26   27       1
    31   26   30       2
    32   27   28      ar
    33   27   29      ar
    34   28   31       1
    35   28   32      ar
    36   29   33      ar
    37   30   31       1
    38   32   34      ar
    39   33   34      ar
    40   35   36       2
    41   35   37       1
    42   34   60       1
    43    5   38       1
    44    5   39       1
    45    6   40       1
    46    8   41       1
    47   12   42       1
    48   15   43       1
    49   15   44       1
    50   18   45       1
    51   19   46       1
    52   20   47       1
    53   21   48       1
    54   22   49       1
    55   23   50       1
    56   23   51       1
    57   24   52       1
    58   25   53       1
    59   25   54       1
    60   29   55       1
    61   30   56       1
    62   31   57       1
    63   32   58       1
    64   33   59       1
    65   23   61       1
@<TRIPOS>SUBSTRUCTURE
     1 TYM701      1 GROUP             4 A     TYM     0 **** TYM A 701
