@<TRIPOS>MOLECULE
3fpz_AHZ_1_ligand
   57    60     1     0     0
SMALL
NO_CHARGES


@<TRIPOS>ATOM
     1 O2'         53.7000    57.4220   -24.4910 O.3          1 AHZ1100   0.0000
     2 C2'         53.6720    56.8490   -23.1670 C.3          1 AHZ1100   0.0000
     3 C3'         53.3680    55.3340   -23.1990 C.3          1 AHZ1100   0.0000
     4 O3'         52.5450    54.9640   -24.3460 O.3          1 AHZ1100   0.0000
     5 C1'         52.5000    57.4010   -22.3330 C.3          1 AHZ1100   0.0000
     6 N9          52.6750    58.7180   -21.5970 N.pl3        1 AHZ1100   0.0000
     7 C8          53.7500    59.0390   -20.8630 C.2          1 AHZ1100   0.0000
     8 N7          53.6010    60.2580   -20.3290 N.2          1 AHZ1100   0.0000
     9 C5          52.3960    60.7230   -20.7130 C.ar         1 AHZ1100   0.0000
    10 C6          51.7080    61.9180   -20.4780 C.ar         1 AHZ1100   0.0000
    11 N1          50.4930    62.0880   -21.0360 N.ar         1 AHZ1100   0.0000
    12 C2          49.9450    61.1190   -21.7930 C.ar         1 AHZ1100   0.0000
    13 N6          52.2270    62.8820   -19.6980 N.pl3        1 AHZ1100   0.0000
    14 C4          51.8040    59.7420   -21.5200 C.ar         1 AHZ1100   0.0000
    15 N3          50.5660    59.9720   -22.0490 N.ar         1 AHZ1100   0.0000
    16 O4'         52.4490    56.4160   -21.2540 O.3          1 AHZ1100   0.0000
    17 C4'         52.6150    55.0840   -21.8650 C.3          1 AHZ1100   0.0000
    18 C5'         53.4610    54.2260   -20.8780 C.3          1 AHZ1100   0.0000
    19 O5'         53.7900    52.9540   -21.4480 O.3          1 AHZ1100   0.0000
    20 PA          54.9800    52.0100   -20.9680 P.3          1 AHZ1100   0.0000
    21 O2A         54.9450    50.7960   -21.7910 O.co2        1 AHZ1100   0.0000
    22 O1A         56.2270    52.8120   -20.8920 O.co2        1 AHZ1100  -1.0000
    23 O3A         54.5570    51.7520   -19.3870 O.3          1 AHZ1100   0.0000
    24 PB          54.0220    50.3980   -18.6330 P.3          1 AHZ1100   0.0000
    25 O1B         52.6340    50.0720   -19.0230 O.co2        1 AHZ1100   0.0000
    26 O2B         54.3180    50.6700   -17.1920 O.co2        1 AHZ1100  -1.0000
    27 O3B         54.9840    49.2300   -19.1580 O.3          1 AHZ1100   0.0000
    28 C7T         56.3820    49.3040   -18.9340 C.3          1 AHZ1100   0.0000
    29 C6T         57.1200    48.3120   -19.8210 C.3          1 AHZ1100   0.0000
    30 C5T         58.4230    47.9470   -19.1280 C.2          1 AHZ1100   0.0000
    31 S1T         59.7200    49.0340   -18.9300 S.3          1 AHZ1100   0.0000
    32 C2T         60.6770    47.8990   -18.1090 C.2          1 AHZ1100   0.0000
    33 C1R         62.0820    48.1200   -17.5730 C.2          1 AHZ1100   0.0000
    34 O1R         62.3760    47.5400   -16.5040 O.co2        1 AHZ1100   0.0000
    35 O2R         62.8530    48.8410   -18.2460 O.co2        1 AHZ1100  -1.0000
    36 N3T         60.0240    46.7420   -17.9840 N.2          1 AHZ1100   0.0000
    37 C4T         58.7980    46.7450   -18.5280 C.2          1 AHZ1100   0.0000
    38 C1M         57.9140    45.4940   -18.4940 C.3          1 AHZ1100   0.0000
    39 H2'         52.8111    57.2909   -24.9298 H            1 AHZ1100   0.0000
    40 H2          54.5393    57.0178   -22.6987 H            1 AHZ1100   0.0000
    41 H3'         54.2226    54.8148   -23.2107 H            1 AHZ1100   0.0000
    42 H4          51.6752    55.4556   -24.3046 H            1 AHZ1100   0.0000
    43 H1'         51.6513    57.3967   -22.8618 H            1 AHZ1100   0.0000
    44 H6          54.5490    58.4520   -20.7329 H            1 AHZ1100   0.0000
    45 H7          49.0343    61.2681   -22.1781 H            1 AHZ1100   0.0000
    46 H8          51.7176    63.7286   -19.5436 H            1 AHZ1100   0.0000
    47 H9          53.1225    62.7526   -19.2721 H            1 AHZ1100   0.0000
    48 H4'         51.7263    54.6578   -22.0337 H            1 AHZ1100   0.0000
    49 H5'1        52.9362    54.0815   -20.0391 H            1 AHZ1100   0.0000
    50 H5'2        54.3061    54.7152   -20.6625 H            1 AHZ1100   0.0000
    51 H7T1        56.5728    49.0929   -17.9754 H            1 AHZ1100   0.0000
    52 H7T2        56.6994    50.2294   -19.1411 H            1 AHZ1100   0.0000
    53 H6T1        57.3125    48.7283   -20.7096 H            1 AHZ1100   0.0000
    54 H6T2        56.5627    47.4919   -19.9508 H            1 AHZ1100   0.0000
    55 H1M1        58.3930    44.7604   -18.0119 H            1 AHZ1100   0.0000
    56 H1M2        57.0593    45.7026   -18.0187 H            1 AHZ1100   0.0000
    57 H1M3        57.7128    45.2025   -19.4292 H            1 AHZ1100   0.0000
@<TRIPOS>BOND
     1    1    2       1
     2    2    3       1
     3    2    5       1
     4    3    4       1
     5    3   17       1
     6    5    6       1
     7    5   16       1
     8    6    7       1
     9    6   14       1
    10    7    8       2
    11    8    9       1
    12    9   10      ar
    13    9   14      ar
    14   10   11      ar
    15   10   13       1
    16   11   12      ar
    17   12   15      ar
    18   14   15      ar
    19   16   17       1
    20   17   18       1
    21   18   19       1
    22   19   20       1
    23   20   21      ar
    24   20   22      ar
    25   20   23       1
    26   23   24       1
    27   24   25      ar
    28   24   26      ar
    29   24   27       1
    30   27   28       1
    31   28   29       1
    32   29   30       1
    33   30   31       1
    34   30   37       2
    35   31   32       1
    36   32   33       1
    37   32   36       2
    38   33   34      ar
    39   33   35      ar
    40   36   37       1
    41   37   38       1
    42    1   39       1
    43    2   40       1
    44    3   41       1
    45    4   42       1
    46    5   43       1
    47    7   44       1
    48   12   45       1
    49   13   46       1
    50   13   47       1
    51   17   48       1
    52   18   49       1
    53   18   50       1
    54   38   57       1
    55   38   56       1
    56   28   51       1
    57   28   52       1
    58   29   53       1
    59   29   54       1
    60   38   55       1
@<TRIPOS>SUBSTRUCTURE
     1 AHZ1100     1 GROUP             4 A     AHZ     0 **** AHZ A1100
