@<TRIPOS>MOLECULE
4zr5_RDF_1_ligand
   69    71     1     0     0
SMALL
NO_CHARGES


@<TRIPOS>ATOM
     1 C1          27.3380     1.3520    -8.7630 C.3          1 RDF802   0.0000
     2 O1          27.9330     2.2010    -9.6480 O.3          1 RDF802   0.0000
     3 C2          25.8660     1.8390    -8.5570 C.3          1 RDF802   0.0000
     4 O2          25.2040     1.0680    -7.5960 O.3          1 RDF802   0.0000
     5 C3          25.0830     1.7250    -9.9070 C.3          1 RDF802   0.0000
     6 O3          23.7170     1.9310    -9.7040 O.3          1 RDF802   0.0000
     7 C4          25.2600     0.3020   -10.5040 C.3          1 RDF802   0.0000
     8 O4          24.7330     0.3210   -11.8040 O.3          1 RDF802   0.0000
     9 C5          26.7720    -0.0270   -10.5620 C.3          1 RDF802   0.0000
    10 O5          27.3120     0.0430    -9.2760 O.3          1 RDF802   0.0000
    11 C6          26.9200    -1.4510   -11.0770 C.3          1 RDF802   0.0000
    12 P           29.5810     2.6500    -9.6650 P.3          1 RDF802   0.0000
    13 O1P         30.2320     1.2980    -9.4700 O.co2        1 RDF802   0.0000
    14 O2P         29.9110     3.5220   -10.8010 O.co2        1 RDF802  -1.0000
    15 N           29.7060     3.3720    -8.1310 N.3          1 RDF802   0.0000
    16 CA          31.0580     3.3240    -7.5570 C.3          1 RDF802   0.0000
    17 C           31.1560     2.1590    -6.5790 C.2          1 RDF802   0.0000
    18 O           32.1900     1.4730    -6.5120 O.2          1 RDF802   0.0000
    19 CB          31.4060     4.6500    -6.8890 C.3          1 RDF802   0.0000
    20 CG          32.8140     4.6350    -6.3100 C.3          1 RDF802   0.0000
    21 CD1         33.0100     5.8960    -5.5070 C.3          1 RDF802   0.0000
    22 CD2         33.8450     4.5990    -7.4260 C.3          1 RDF802   0.0000
    23 N1          30.0750     1.8890    -5.7870 N.am         1 RDF802   0.0000
    24 CA1         30.1430     0.7750    -4.8290 C.3          1 RDF802   0.0000
    25 C7          28.7510     0.1570    -4.5020 C.2          1 RDF802   0.0000
    26 O6          27.7840     0.6470    -5.1430 O.co2        1 RDF802   0.0000
    27 CB1         30.7600     1.2930    -3.5400 C.3          1 RDF802   0.0000
    28 CG1         29.7460     2.0490    -2.7900 C.2          1 RDF802   0.0000
    29 CD11        29.1330     3.1840    -3.2680 C.2          1 RDF802   0.0000
    30 CD21        29.2120     1.7890    -1.4890 C.ar         1 RDF802   0.0000
    31 NE1         28.2220     3.6570    -2.3150 N.pl3        1 RDF802   0.0000
    32 CE2         28.2600     2.8080    -1.2160 C.ar         1 RDF802   0.0000
    33 CE3         29.4350     0.8090    -0.5320 C.ar         1 RDF802   0.0000
    34 CZ2         27.5480     2.8530    -0.0160 C.ar         1 RDF802   0.0000
    35 CZ3         28.7390     0.8540     0.6510 C.ar         1 RDF802   0.0000
    36 CH2         27.7990     1.8660     0.9050 C.ar         1 RDF802   0.0000
    37 OXT         28.6870    -0.7470    -3.6530 O.co2        1 RDF802  -1.0000
    38 H1          27.8284     1.3679    -7.8916 H            1 RDF802   0.0000
    39 H2          25.8746     2.7945    -8.2622 H            1 RDF802   0.0000
    40 H3          25.3363     1.4758    -6.6926 H            1 RDF802   0.0000
    41 H4          25.4309     2.4041   -10.5534 H            1 RDF802   0.0000
    42 H5          23.5707     2.8433    -9.3215 H            1 RDF802   0.0000
    43 H6          24.7789    -0.3723    -9.9438 H            1 RDF802   0.0000
    44 H7          25.4522     0.5727   -12.4516 H            1 RDF802   0.0000
    45 H8          27.2425     0.6121   -11.1705 H            1 RDF802   0.0000
    46 H9          27.8901    -1.6893   -11.1242 H            1 RDF802   0.0000
    47 H10         26.4520    -2.0802   -10.4565 H            1 RDF802   0.0000
    48 H11         26.5152    -1.5194   -11.9889 H            1 RDF802   0.0000
    49 H12         29.4321     4.3304    -8.2111 H            1 RDF802   0.0000
    50 HA          31.7089     3.1662    -8.2996 H            1 RDF802   0.0000
    51 HB1         30.7537     4.8223    -6.1509 H            1 RDF802   0.0000
    52 HB2         31.3423     5.3816    -7.5677 H            1 RDF802   0.0000
    53 HG          32.9279     3.8366    -5.7187 H            1 RDF802   0.0000
    54 HD11        33.9313     5.9037    -5.1181 H            1 RDF802   0.0000
    55 HD12        32.8925     6.6914    -6.1015 H            1 RDF802   0.0000
    56 HD13        32.3363     5.9292    -4.7688 H            1 RDF802   0.0000
    57 HD21        34.7636     4.5895    -7.0310 H            1 RDF802   0.0000
    58 HD22        33.7107     3.7756    -7.9774 H            1 RDF802   0.0000
    59 HD23        33.7390     5.4082    -8.0039 H            1 RDF802   0.0000
    60 H23         29.2459     2.4436    -5.8583 H            1 RDF802   0.0000
    61 HA1         30.7331     0.0608    -5.2054 H            1 RDF802   0.0000
    62 HB11        31.5321     1.8910    -3.7552 H            1 RDF802   0.0000
    63 HB12        31.0789     0.5224    -2.9883 H            1 RDF802   0.0000
    64 H27         29.3102     3.6056    -4.1573 H            1 RDF802   0.0000
    65 HE1         27.6433     4.4671    -2.4095 H            1 RDF802   0.0000
    66 HE3         30.0956     0.0777    -0.7021 H            1 RDF802   0.0000
    67 HZ2         26.8813     3.5758     0.1657 H            1 RDF802   0.0000
    68 HZ3         28.9046     0.1530     1.3446 H            1 RDF802   0.0000
    69 HH2         27.3029     1.8678     1.7733 H            1 RDF802   0.0000
@<TRIPOS>BOND
     1    1    2       1
     2    1    3       1
     3    1   10       1
     4    2   12       1
     5    3    4       1
     6    3    5       1
     7    5    6       1
     8    5    7       1
     9    7    8       1
    10    7    9       1
    11    9   10       1
    12    9   11       1
    13   12   13      ar
    14   12   14      ar
    15   12   15       1
    16   15   16       1
    17   16   17       1
    18   16   19       1
    19   17   18       2
    20   17   23      am
    21   19   20       1
    22   20   21       1
    23   20   22       1
    24   23   24       1
    25   24   25       1
    26   24   27       1
    27   25   26      ar
    28   25   37      ar
    29   27   28       1
    30   28   29       2
    31   28   30       1
    32   29   31       1
    33   30   32      ar
    34   30   33      ar
    35   31   32       1
    36   32   34      ar
    37   33   35      ar
    38   34   36      ar
    39   35   36      ar
    40    1   38       1
    41    3   39       1
    42    4   40       1
    43    5   41       1
    44    6   42       1
    45    7   43       1
    46    8   44       1
    47    9   45       1
    48   11   46       1
    49   11   47       1
    50   11   48       1
    51   36   69       1
    52   15   49       1
    53   16   50       1
    54   19   51       1
    55   19   52       1
    56   20   53       1
    57   21   54       1
    58   21   55       1
    59   21   56       1
    60   22   57       1
    61   22   58       1
    62   22   59       1
    63   23   60       1
    64   24   61       1
    65   35   68       1
    66   27   62       1
    67   27   63       1
    68   29   64       1
    69   31   65       1
    70   33   66       1
    71   34   67       1
@<TRIPOS>SUBSTRUCTURE
     1 RDF802      1 GROUP             4 A     RDF     0 **** RDF A 802
