@<TRIPOS>MOLECULE
3hjo_EAA_2_ligand
   30    30     1     0     0
SMALL
NO_CHARGES


@<TRIPOS>ATOM
     1 C1           8.8230    20.1990     3.2230 C.ar         1 EAA211   0.0000
     2 O2           8.4560    20.3470     1.9020 O.3          1 EAA211   0.0000
     3 C2           9.5190    21.3120     3.9100 C.ar         1 EAA211   0.0000
     4 CL1          9.8820    22.8280     3.0100 Cl           1 EAA211   0.0000
     5 C3           9.9040    21.1520     5.3390 C.ar         1 EAA211   0.0000
     6 CL2         10.7560    22.5340     6.0840 Cl           1 EAA211   0.0000
     7 C4           9.5740    19.8680     6.0450 C.ar         1 EAA211   0.0000
     8 C5           8.9110    18.8910     5.2890 C.ar         1 EAA211   0.0000
     9 C6           8.5460    19.0370     3.9450 C.ar         1 EAA211   0.0000
    10 C7           9.8600    19.5020     7.4990 C.2          1 EAA211   0.0000
    11 O1           9.5750    18.3740     7.8700 O.2          1 EAA211   0.0000
    12 C8          10.4150    20.3400     8.5690 C.2          1 EAA211   0.0000
    13 C9           9.9360    21.7550     8.8540 C.3          1 EAA211   0.0000
    14 C10          9.7040    21.9920    10.3390 C.3          1 EAA211   0.0000
    15 C11         11.3380    19.7900     9.3470 C.2          1 EAA211   0.0000
    16 C12          8.6640    19.3140     0.9340 C.3          1 EAA211   0.0000
    17 C13          7.4280    18.4880     0.6620 C.2          1 EAA211   0.0000
    18 O            6.7500    18.7350    -0.3530 O.co2        1 EAA211   0.0000
    19 OXT          7.1320    17.5680     1.4500 O.co2        1 EAA211  -1.0000
    20 H1           8.6826    18.0290     5.7415 H            1 EAA211   0.0000
    21 H2           8.0717    18.2847     3.4878 H            1 EAA211   0.0000
    22 H3           9.0777    21.9096     8.3647 H            1 EAA211   0.0000
    23 H4          10.6264    22.4010     8.5283 H            1 EAA211   0.0000
    24 H5           9.3910    22.9310    10.4818 H            1 EAA211   0.0000
    25 H6           9.0099    21.3547    10.6738 H            1 EAA211   0.0000
    26 H7          10.5586    21.8461    10.8374 H            1 EAA211   0.0000
    27 H8          11.7464    20.3203    10.0899 H            1 EAA211   0.0000
    28 H9          11.6254    18.8450     9.1906 H            1 EAA211   0.0000
    29 H10          9.3840    18.7062     1.2689 H            1 EAA211   0.0000
    30 H11          8.9572    19.7374     0.0768 H            1 EAA211   0.0000
@<TRIPOS>BOND
     1    1    2       1
     2    1    3      ar
     3    1    9      ar
     4    2   16       1
     5    3    4       1
     6    3    5      ar
     7    5    6       1
     8    5    7      ar
     9    7    8      ar
    10    7   10       1
    11    8    9      ar
    12   10   11       2
    13   10   12       1
    14   12   13       1
    15   12   15       2
    16   13   14       1
    17   16   17       1
    18   17   18      ar
    19   17   19      ar
    20    8   20       1
    21    9   21       1
    22   13   22       1
    23   13   23       1
    24   14   24       1
    25   14   25       1
    26   14   26       1
    27   15   27       1
    28   15   28       1
    29   16   29       1
    30   16   30       1
@<TRIPOS>SUBSTRUCTURE
     1 EAA211      1 GROUP             4 B     EAA     0 **** EAA B 211
