@<TRIPOS>MOLECULE
4qen_SAH_1_ligand
   46    48     1     0     0
SMALL
NO_CHARGES


@<TRIPOS>ATOM
     1 N           11.9110     6.1400    37.8380 N.4          1 SAH801   1.0000
     2 CA          12.0040     5.4190    39.1050 C.3          1 SAH801   0.0000
     3 CB          10.6220     5.2790    39.7390 C.3          1 SAH801   0.0000
     4 CG          10.1450     6.5620    40.4100 C.3          1 SAH801   0.0000
     5 SD          10.9260     6.7200    42.0330 S.3          1 SAH801   0.0000
     6 C           12.6600     4.0500    38.9600 C.2          1 SAH801   0.0000
     7 O           12.5400     3.2090    39.8510 O.co2        1 SAH801   0.0000
     8 OXT         13.3090     3.7550    37.9570 O.co2        1 SAH801  -1.0000
     9 C5'         11.4300     8.4420    41.7930 C.3          1 SAH801   0.0000
    10 C4'         12.8170     8.5880    41.1830 C.3          1 SAH801   0.0000
    11 O4'         12.7380     8.4420    39.7740 O.3          1 SAH801   0.0000
    12 C3'         13.4050     9.9620    41.4580 C.3          1 SAH801   0.0000
    13 O3'         14.2590     9.9560    42.5730 O.3          1 SAH801   0.0000
    14 C2'         14.1770    10.2620    40.1970 C.3          1 SAH801   0.0000
    15 O2'         15.4610     9.6880    40.2820 O.3          1 SAH801   0.0000
    16 C1'         13.4130     9.5070    39.1340 C.3          1 SAH801   0.0000
    17 N9          12.4470    10.4260    38.4970 N.pl3        1 SAH801   0.0000
    18 C8          11.0820    10.4530    38.6670 C.2          1 SAH801   0.0000
    19 N7          10.5710    11.4550    37.9090 N.2          1 SAH801   0.0000
    20 C5          11.5890    12.0780    37.2720 C.ar         1 SAH801   0.0000
    21 C6          11.6330    13.1560    36.3850 C.ar         1 SAH801   0.0000
    22 N6          10.5200    13.7920    36.0060 N.pl3        1 SAH801   0.0000
    23 N1          12.8550    13.5700    35.8920 N.ar         1 SAH801   0.0000
    24 C2          14.0200    12.9270    36.2630 C.ar         1 SAH801   0.0000
    25 N3          13.9740    11.8620    37.1410 N.ar         1 SAH801   0.0000
    26 C4          12.7750    11.4390    37.6320 C.ar         1 SAH801   0.0000
    27 H1          12.7603     6.6429    37.6775 H            1 SAH801   0.0000
    28 H2          11.7637     5.4885    37.0938 H            1 SAH801   0.0000
    29 HA          12.5695     5.9636    39.7245 H            1 SAH801   0.0000
    30 HB1         10.6582     4.5537    40.4265 H            1 SAH801   0.0000
    31 HB2          9.9673     5.0295    39.0255 H            1 SAH801   0.0000
    32 HG1          9.1515     6.5312    40.5198 H            1 SAH801   0.0000
    33 HG2         10.3935     7.3471    39.8427 H            1 SAH801   0.0000
    34 H5'1        11.4250     8.9003    42.6818 H            1 SAH801   0.0000
    35 H5'2        10.7691     8.8839    41.1864 H            1 SAH801   0.0000
    36 H4'         13.4218     7.8853    41.5577 H            1 SAH801   0.0000
    37 H3'         12.6742    10.6327    41.5848 H            1 SAH801   0.0000
    38 H12         15.1925     9.7541    42.2768 H            1 SAH801   0.0000
    39 H2'         14.2164    11.2427    40.0055 H            1 SAH801   0.0000
    40 H14         15.4361     8.7592    39.9122 H            1 SAH801   0.0000
    41 H1'         14.0460     9.1476    38.4484 H            1 SAH801   0.0000
    42 H16         10.5546     9.8367    39.2518 H            1 SAH801   0.0000
    43 H17         10.5758    14.5615    35.3698 H            1 SAH801   0.0000
    44 H18          9.6316    13.4983    36.3587 H            1 SAH801   0.0000
    45 H19         14.8981    13.2332    35.8952 H            1 SAH801   0.0000
    46 H20         11.1453     6.7822    37.8753 H            1 SAH801   0.0000
@<TRIPOS>BOND
     1    1    2       1
     2    2    3       1
     3    2    6       1
     4    3    4       1
     5    4    5       1
     6    5    9       1
     7    6    7      ar
     8    6    8      ar
     9    9   10       1
    10   10   11       1
    11   10   12       1
    12   11   16       1
    13   12   13       1
    14   12   14       1
    15   14   15       1
    16   14   16       1
    17   16   17       1
    18   17   18       1
    19   17   26       1
    20   18   19       2
    21   19   20       1
    22   20   21      ar
    23   20   26      ar
    24   21   22       1
    25   21   23      ar
    26   23   24      ar
    27   24   25      ar
    28   25   26      ar
    29    1   27       1
    30    1   28       1
    31    2   29       1
    32    3   30       1
    33    3   31       1
    34    4   32       1
    35    4   33       1
    36    1   46       1
    37    9   34       1
    38    9   35       1
    39   10   36       1
    40   12   37       1
    41   13   38       1
    42   14   39       1
    43   15   40       1
    44   16   41       1
    45   18   42       1
    46   22   43       1
    47   22   44       1
    48   24   45       1
@<TRIPOS>SUBSTRUCTURE
     1 SAH801      1 GROUP             4 A     SAH     0 **** SAH A 801
