@<TRIPOS>MOLECULE
4iql_FMN_1_ligand
   50    52     1     0     0
SMALL
NO_CHARGES


@<TRIPOS>ATOM
     1 N1         -23.2710    23.8850   -22.2910 N.2          1 FMN401   0.0000
     2 C2         -24.4850    24.5000   -22.5300 C.2          1 FMN401   0.0000
     3 O2         -25.4980    23.8140   -22.5580 O.2          1 FMN401   0.0000
     4 N3         -24.5610    25.8720   -22.7400 N.pl3        1 FMN401   0.0000
     5 C4         -23.4040    26.6500   -22.7540 C.2          1 FMN401   0.0000
     6 O4         -23.4490    27.8600   -22.9850 O.2          1 FMN401   0.0000
     7 C4A        -22.1790    26.0590   -22.4690 C.2          1 FMN401   0.0000
     8 N5         -21.0100    26.8240   -22.4450 N.2          1 FMN401   0.0000
     9 C5A        -19.7710    26.1630   -22.3480 C.ar         1 FMN401   0.0000
    10 C6         -18.5580    26.8820   -22.4540 C.ar         1 FMN401   0.0000
    11 C7         -17.3370    26.2140   -22.3740 C.ar         1 FMN401   0.0000
    12 C7M        -16.0370    26.9670   -22.4420 C.3          1 FMN401   0.0000
    13 C8         -17.3140    24.8310   -22.2040 C.ar         1 FMN401   0.0000
    14 C8M        -15.9880    24.1410   -22.0960 C.3          1 FMN401   0.0000
    15 C9         -18.4940    24.1020   -22.1240 C.ar         1 FMN401   0.0000
    16 C9A        -19.7270    24.7730   -22.2040 C.ar         1 FMN401   0.0000
    17 N10        -20.9150    24.0440   -22.1500 N.pl3        1 FMN401   0.0000
    18 C10        -22.1250    24.6710   -22.3070 C.2          1 FMN401   0.0000
    19 C1'        -20.9290    22.5480   -22.0830 C.3          1 FMN401   0.0000
    20 C2'        -20.6000    22.0400   -23.5020 C.3          1 FMN401   0.0000
    21 O2'        -21.6990    22.2390   -24.3990 O.3          1 FMN401   0.0000
    22 C3'        -20.3330    20.5170   -23.5440 C.3          1 FMN401   0.0000
    23 O3'        -21.4880    19.7930   -23.0990 O.3          1 FMN401   0.0000
    24 C4'        -19.1060    20.0620   -22.7810 C.3          1 FMN401   0.0000
    25 O4'        -18.0510    20.9950   -23.0130 O.3          1 FMN401   0.0000
    26 C5'        -18.7830    18.6220   -23.2270 C.3          1 FMN401   0.0000
    27 O5'        -17.7040    18.0970   -22.4440 O.3          1 FMN401   0.0000
    28 P          -16.1700    18.3150   -22.9240 P.3          1 FMN401   0.0000
    29 O1P        -16.0660    18.0080   -24.3860 O.co2        1 FMN401   0.0000
    30 O2P        -15.4730    17.2800   -22.0710 O.co2        1 FMN401  -1.0000
    31 O3P        -15.7940    19.7100   -22.5310 O.co2        1 FMN401  -1.0000
    32 H1         -25.4516    26.3040   -22.8820 H            1 FMN401   0.0000
    33 H2         -18.5761    27.8730   -22.5868 H            1 FMN401   0.0000
    34 H7M1       -15.2749    26.3237   -22.3684 H            1 FMN401   0.0000
    35 H7M2       -15.9791    27.4541   -23.3135 H            1 FMN401   0.0000
    36 H7M3       -15.9925    27.6239   -21.6894 H            1 FMN401   0.0000
    37 H8M1       -16.1321    23.1585   -21.9781 H            1 FMN401   0.0000
    38 H8M2       -15.4593    24.3027   -22.9292 H            1 FMN401   0.0000
    39 H8M3       -15.4878    24.5014   -21.3086 H            1 FMN401   0.0000
    40 H9         -18.4666    23.1088   -22.0105 H            1 FMN401   0.0000
    41 H1'1       -21.8320    22.2237   -21.8012 H            1 FMN401   0.0000
    42 H1'2       -20.2411    22.2253   -21.4329 H            1 FMN401   0.0000
    43 H2'        -19.7979    22.5258   -23.8492 H            1 FMN401   0.0000
    44 H13        -21.9122    23.2145   -24.4537 H            1 FMN401   0.0000
    45 H3'        -20.1873    20.2728   -24.5027 H            1 FMN401   0.0000
    46 H15        -21.4352    19.6566   -22.1098 H            1 FMN401   0.0000
    47 H4'        -19.3196    20.0553   -21.8041 H            1 FMN401   0.0000
    48 H17        -17.1711    20.5226   -22.9621 H            1 FMN401   0.0000
    49 H5'1       -18.5210    18.6251   -24.1921 H            1 FMN401   0.0000
    50 H5'2       -19.5921    18.0476   -23.1032 H            1 FMN401   0.0000
@<TRIPOS>BOND
     1    1    2       1
     2    1   18       2
     3    2    3       2
     4    2    4       1
     5    4    5       1
     6    5    6       2
     7    5    7       1
     8    7    8       2
     9    7   18       1
    10    8    9       1
    11    9   10      ar
    12    9   16      ar
    13   10   11      ar
    14   11   12       1
    15   11   13      ar
    16   13   14       1
    17   13   15      ar
    18   15   16      ar
    19   16   17       1
    20   17   18       1
    21   17   19       1
    22   19   20       1
    23   20   21       1
    24   20   22       1
    25   22   23       1
    26   22   24       1
    27   24   25       1
    28   24   26       1
    29   26   27       1
    30   27   28       1
    31   28   29      ar
    32   28   30      ar
    33   28   31      ar
    34    4   32       1
    35   10   33       1
    36   12   34       1
    37   12   35       1
    38   12   36       1
    39   14   37       1
    40   14   38       1
    41   14   39       1
    42   15   40       1
    43   19   41       1
    44   19   42       1
    45   20   43       1
    46   21   44       1
    47   22   45       1
    48   23   46       1
    49   24   47       1
    50   25   48       1
    51   26   49       1
    52   26   50       1
@<TRIPOS>SUBSTRUCTURE
     1 FMN401      1 GROUP             4 A     FMN     0 **** FMN A 401
