@<TRIPOS>MOLECULE
3br0_IMD_3_ligand
    9     9     1     0     0
SMALL
NO_CHARGES


@<TRIPOS>ATOM
     1 N1          31.5510    27.8350     8.9120 N.2          1 IMD402   0.0000
     2 C2          30.9760    27.2930    10.0120 C.2          1 IMD402   0.0000
     3 N3          30.2590    28.2500    10.6470 N.pl3        1 IMD402   0.0000
     4 C4          30.3780    29.3980     9.9450 C.2          1 IMD402   0.0000
     5 C5          31.1920    29.1340     8.8500 C.2          1 IMD402   0.0000
     6 H1          31.0662    26.3417    10.3069 H            1 IMD402   0.0000
     7 H2          29.9575    30.2765    10.1717 H            1 IMD402   0.0000
     8 H3          31.4626    29.7884     8.1439 H            1 IMD402   0.0000
     9 H4          29.7331    28.1282    11.4888 H            1 IMD402   0.0000
@<TRIPOS>BOND
     1    1    2       2
     2    1    5       1
     3    2    3       1
     4    3    4       1
     5    4    5       2
     6    5    8       1
     7    2    6       1
     8    4    7       1
     9    3    9       1
@<TRIPOS>SUBSTRUCTURE
     1 IMD402      1 GROUP             4 A     IMD     0 **** IMD A 402
