@<TRIPOS>MOLECULE
4oay_C2E_3_ligand
   68    74     1     0     0
SMALL
NO_CHARGES


@<TRIPOS>ATOM
     1 P1          45.4230   -19.6490    19.0150 P.3          1 C2E201   0.0000
     2 O2P         46.7410   -20.4020    18.9590 O.3          1 C2E201   0.0000
     3 O1P         44.2850   -20.1430    18.0800 O.2          1 C2E201   0.0000
     4 O5'         45.8670   -18.1240    18.8540 O.3          1 C2E201   0.0000
     5 C5'         46.9510   -17.5600    19.5050 C.3          1 C2E201   0.0000
     6 C4'         46.6330   -16.1230    19.3610 C.3          1 C2E201   0.0000
     7 O4'         46.8890   -15.5080    18.1030 O.3          1 C2E201   0.0000
     8 C3'         45.5350   -15.3960    20.1430 C.3          1 C2E201   0.0000
     9 O3'         45.6580   -15.3780    21.5340 O.3          1 C2E201   0.0000
    10 C2'         45.7990   -14.1200    19.4810 C.2          1 C2E201   0.0000
    11 O2'         46.2090   -12.9880    20.0250 O.2          1 C2E201   0.0000
    12 C1'         46.0620   -14.3770    18.0610 C.3          1 C2E201   0.0000
    13 N9          44.9890   -14.6740    17.1690 N.pl3        1 C2E201   0.0000
    14 C8          44.5480   -16.0050    16.5660 C.2          1 C2E201   0.0000
    15 N7          43.6380   -15.8920    15.6840 N.2          1 C2E201   0.0000
    16 C5          43.3100   -14.6140    15.5990 C.2          1 C2E201   0.0000
    17 C6          42.3050   -13.9200    14.7980 C.2          1 C2E201   0.0000
    18 O6          41.5800   -14.4750    14.0240 O.2          1 C2E201   0.0000
    19 N1          42.2310   -12.5430    14.9110 N.pl3        1 C2E201   0.0000
    20 C2          43.0060   -11.8460    15.7820 C.2          1 C2E201   0.0000
    21 N2          42.8420   -10.5020    15.8300 N.pl3        1 C2E201   0.0000
    22 N3          43.9500   -12.4760    16.5270 N.2          1 C2E201   0.0000
    23 C4          44.0650   -13.8680    16.3940 C.2          1 C2E201   0.0000
    24 P11         44.3160   -15.0860    22.2990 P.3          1 C2E201   0.0000
    25 O21         44.8990   -15.0060    23.7340 O.3          1 C2E201   0.0000
    26 O11         43.3820   -13.9790    21.6990 O.2          1 C2E201   0.0000
    27 O5A         43.6730   -16.5600    22.2450 O.3          1 C2E201   0.0000
    28 C5A         44.2770   -17.6450    22.9110 C.3          1 C2E201   0.0000
    29 C4A         43.6830   -18.9410    22.3840 C.3          1 C2E201   0.0000
    30 O4A         42.3320   -19.0300    22.6860 O.3          1 C2E201   0.0000
    31 C3A         43.7990   -19.1670    20.9000 C.3          1 C2E201   0.0000
    32 O3A         45.0900   -19.5570    20.5770 O.3          1 C2E201   0.0000
    33 C2A         42.6920   -20.1600    20.6650 C.3          1 C2E201   0.0000
    34 O2A         43.0550   -21.4980    20.7920 O.3          1 C2E201   0.0000
    35 C1A         41.6880   -19.7810    21.7290 C.3          1 C2E201   0.0000
    36 N91         40.7400   -18.8950    21.1980 N.pl3        1 C2E201   0.0000
    37 C81         40.6410   -17.3810    21.3900 C.2          1 C2E201   0.0000
    38 N71         39.6660   -16.8350    20.7530 N.2          1 C2E201   0.0000
    39 C51         39.0760   -17.7850    20.0750 C.2          1 C2E201   0.0000
    40 C61         37.9130   -17.7330    19.1950 C.2          1 C2E201   0.0000
    41 O61         37.3210   -16.6880    18.8710 O.2          1 C2E201   0.0000
    42 N11         37.5630   -18.9190    18.6290 N.pl3        1 C2E201   0.0000
    43 C21         38.2020   -20.1880    18.8430 C.2          1 C2E201   0.0000
    44 N21         37.7460   -21.3870    18.2010 N.pl3        1 C2E201   0.0000
    45 N31         39.2080   -20.2420    19.6740 N.2          1 C2E201   0.0000
    46 C41         39.6600   -18.9680    20.2620 C.2          1 C2E201   0.0000
    47 H2P         46.5888   -21.3592    19.2053 H            1 C2E201   0.0000
    48 H5'1        47.8137   -17.7941    19.0567 H            1 C2E201   0.0000
    49 H5'2        46.9891   -17.8354    20.4656 H            1 C2E201   0.0000
    50 H4'         47.4208   -15.7570    19.8564 H            1 C2E201   0.0000
    51 H3'         44.6349   -15.7429    19.8796 H            1 C2E201   0.0000
    52 H1'         46.5857   -13.6109    17.6884 H            1 C2E201   0.0000
    53 H7          44.9382   -16.8844    16.8389 H            1 C2E201   0.0000
    54 H8          41.5856   -12.0444    14.3323 H            1 C2E201   0.0000
    55 H9          43.3935    -9.9531    16.4581 H            1 C2E201   0.0000
    56 H10         42.1694   -10.0589    15.2373 H            1 C2E201   0.0000
    57 H11         45.1640   -14.0627    23.9340 H            1 C2E201   0.0000
    58 H5A1        44.1058   -17.5727    23.8936 H            1 C2E201   0.0000
    59 H5A2        45.2627   -17.6351    22.7428 H            1 C2E201   0.0000
    60 H4A         44.1478   -19.6976    22.8440 H            1 C2E201   0.0000
    61 H3A         43.5837   -18.3161    20.4207 H            1 C2E201   0.0000
    62 H2A         42.2933   -20.0071    19.7608 H            1 C2E201   0.0000
    63 H17         42.2585   -22.0773    20.6189 H            1 C2E201   0.0000
    64 H1A         41.2530   -20.5885    22.1275 H            1 C2E201   0.0000
    65 H19         41.2777   -16.8617    21.9601 H            1 C2E201   0.0000
    66 H20         38.2134   -22.2544    18.3717 H            1 C2E201   0.0000
    67 H21         36.9607   -21.3555    17.5827 H            1 C2E201   0.0000
    68 H22         36.7841   -18.9067    18.0020 H            1 C2E201   0.0000
@<TRIPOS>BOND
     1    1    2       1
     2    1    3       2
     3    1    4       1
     4    1   32       1
     5    4    5       1
     6    5    6       1
     7    6    7       1
     8    6    8       1
     9    7   12       1
    10    8    9       1
    11    8   10       1
    12    9   24       1
    13   10   11       2
    14   10   12       1
    15   12   13       1
    16   13   14       1
    17   13   23       1
    18   14   15       2
    19   15   16       1
    20   16   17       1
    21   16   23       2
    22   17   18       2
    23   17   19       1
    24   19   20       1
    25   20   21       1
    26   20   22       2
    27   22   23       1
    28   24   25       1
    29   24   26       2
    30   24   27       1
    31   27   28       1
    32   28   29       1
    33   29   30       1
    34   29   31       1
    35   30   35       1
    36   31   32       1
    37   31   33       1
    38   33   34       1
    39   33   35       1
    40   35   36       1
    41   36   37       1
    42   36   46       1
    43   37   38       2
    44   38   39       1
    45   39   40       1
    46   39   46       2
    47   40   41       2
    48   40   42       1
    49   42   43       1
    50   43   44       1
    51   43   45       2
    52   45   46       1
    53    2   47       1
    54    5   48       1
    55    5   49       1
    56    6   50       1
    57    8   51       1
    58   12   52       1
    59   14   53       1
    60   19   54       1
    61   21   55       1
    62   21   56       1
    63   25   57       1
    64   28   58       1
    65   28   59       1
    66   29   60       1
    67   31   61       1
    68   33   62       1
    69   34   63       1
    70   35   64       1
    71   37   65       1
    72   44   66       1
    73   44   67       1
    74   42   68       1
@<TRIPOS>SUBSTRUCTURE
     1 C2E201      1 GROUP             4 B     C2E     0 **** C2E B 201
