@<TRIPOS>MOLECULE
4h6r_FDA_1_ligand
   84    89     1     0     0
SMALL
NO_CHARGES


@<TRIPOS>ATOM
     1 PA          17.7770    10.9800   -20.9210 P.3          1 FDA2001   0.0000
     2 O1A         18.0870     9.8010   -19.9850 O.co2        1 FDA2001   0.0000
     3 O2A         18.4150    12.2910   -20.8160 O.co2        1 FDA2001  -1.0000
     4 O5B         16.3070    11.3030   -21.0570 O.3          1 FDA2001   0.0000
     5 C5B         15.8090    12.3330   -21.9110 C.3          1 FDA2001   0.0000
     6 C4B         14.2850    12.3930   -21.8030 C.3          1 FDA2001   0.0000
     7 O4B         13.6130    11.2630   -22.2980 O.3          1 FDA2001   0.0000
     8 C3B         13.7770    12.4590   -20.4020 C.3          1 FDA2001   0.0000
     9 O3B         13.9700    13.7520   -19.9530 O.3          1 FDA2001   0.0000
    10 C2B         12.3630    12.0650   -20.5760 C.3          1 FDA2001   0.0000
    11 O2B         11.6250    13.1090   -21.1150 O.3          1 FDA2001   0.0000
    12 C1B         12.4320    10.9900   -21.6150 C.3          1 FDA2001   0.0000
    13 N9A         12.5970     9.6760   -20.9950 N.pl3        1 FDA2001   0.0000
    14 C8A         13.7330     8.8950   -20.9360 C.2          1 FDA2001   0.0000
    15 N7A         13.4810     7.7810   -20.2520 N.2          1 FDA2001   0.0000
    16 C5A         12.1400     7.7920   -19.8460 C.ar         1 FDA2001   0.0000
    17 C6A         11.3280     6.9390   -19.1110 C.ar         1 FDA2001   0.0000
    18 N6A         11.8290     5.7020   -18.6170 N.pl3        1 FDA2001   0.0000
    19 N1A         10.0590     7.2630   -18.8680 N.ar         1 FDA2001   0.0000
    20 C2A          9.5150     8.4130   -19.3280 C.ar         1 FDA2001   0.0000
    21 N3A         10.2810     9.2840   -20.0370 N.ar         1 FDA2001   0.0000
    22 C4A         11.5700     9.0080   -20.3020 C.ar         1 FDA2001   0.0000
    23 N1          21.9760     1.7750   -23.3770 N.2          1 FDA2001   0.0000
    24 C2          23.1570     0.9850   -23.3710 C.2          1 FDA2001   0.0000
    25 O2          24.0980     1.2080   -22.4560 O.2          1 FDA2001   0.0000
    26 N3          23.4120    -0.0420   -24.2790 N.pl3        1 FDA2001   0.0000
    27 C4          22.4690    -0.3050   -25.2530 C.2          1 FDA2001   0.0000
    28 O4          22.6880    -1.2680   -26.1270 O.2          1 FDA2001   0.0000
    29 C4X         21.2320     0.4830   -25.2940 C.2          1 FDA2001   0.0000
    30 N5          20.2350     0.1460   -26.2860 N.2          1 FDA2001   0.0000
    31 C5X         19.2440     1.1630   -26.4600 C.ar         1 FDA2001   0.0000
    32 C6          18.4080     1.0710   -27.6790 C.ar         1 FDA2001   0.0000
    33 C7          17.5280     2.1460   -27.8980 C.ar         1 FDA2001   0.0000
    34 C7M         16.6630     2.0730   -29.1480 C.3          1 FDA2001   0.0000
    35 C8          17.4230     3.2300   -26.9980 C.ar         1 FDA2001   0.0000
    36 C8M         16.4500     4.3580   -27.2840 C.3          1 FDA2001   0.0000
    37 C9          18.2060     3.3190   -25.8250 C.ar         1 FDA2001   0.0000
    38 C9A         19.1410     2.2190   -25.5970 C.ar         1 FDA2001   0.0000
    39 N10         19.9160     2.3050   -24.4220 N.pl3        1 FDA2001   0.0000
    40 C10         21.0390     1.4690   -24.3870 C.2          1 FDA2001   0.0000
    41 C1'         19.5790     3.1690   -23.2600 C.3          1 FDA2001   0.0000
    42 C2'         20.3040     4.4850   -23.3560 C.3          1 FDA2001   0.0000
    43 O2'         21.6470     4.2820   -23.0190 O.3          1 FDA2001   0.0000
    44 C3'         19.7150     5.5410   -22.4550 C.3          1 FDA2001   0.0000
    45 O3'         19.8130     5.0200   -21.1700 O.3          1 FDA2001   0.0000
    46 C4'         18.2420     5.8570   -22.7430 C.3          1 FDA2001   0.0000
    47 O4'         18.0220     6.0830   -24.1050 O.3          1 FDA2001   0.0000
    48 C5'         17.7810     7.1410   -21.9930 C.3          1 FDA2001   0.0000
    49 O5'         18.5710     8.2080   -22.4570 O.3          1 FDA2001   0.0000
    50 P           18.0810     9.4260   -23.3510 P.3          1 FDA2001   0.0000
    51 O1P         18.8850     9.5790   -24.6600 O.co2        1 FDA2001   0.0000
    52 O2P         16.5590     9.2230   -23.5410 O.co2        1 FDA2001  -1.0000
    53 O3P         18.1670    10.7710   -22.3830 O.3          1 FDA2001   0.0000
    54 H5B1        16.0686    12.1364   -22.8565 H            1 FDA2001   0.0000
    55 H5B2        16.1975    13.2120   -21.6345 H            1 FDA2001   0.0000
    56 H4B         13.9614    13.1992   -22.2982 H            1 FDA2001   0.0000
    57 H3B         14.2586    11.8050   -19.8186 H            1 FDA2001   0.0000
    58 H5          13.6389    13.8313   -19.0128 H            1 FDA2001   0.0000
    59 H2B         11.9636    11.7306   -19.7224 H            1 FDA2001   0.0000
    60 H7          11.6414    13.0483   -22.1130 H            1 FDA2001   0.0000
    61 H1B         11.6393    11.0139   -22.2241 H            1 FDA2001   0.0000
    62 H8A         14.6142     9.1306   -21.3459 H            1 FDA2001   0.0000
    63 H6A1        11.2336     5.0966   -18.0888 H            1 FDA2001   0.0000
    64 H6A2        12.7764     5.4382   -18.7980 H            1 FDA2001   0.0000
    65 H2A          8.5538     8.6214   -19.1473 H            1 FDA2001   0.0000
    66 H13         24.2566    -0.5748   -24.2262 H            1 FDA2001   0.0000
    67 H14         18.4655     0.2943   -28.3062 H            1 FDA2001   0.0000
    68 H7M1        16.0818     2.8852   -29.1991 H            1 FDA2001   0.0000
    69 H7M2        17.2492     2.0312   -29.9571 H            1 FDA2001   0.0000
    70 H7M3        16.0896     1.2547   -29.1092 H            1 FDA2001   0.0000
    71 H8M1        16.5028     5.0374   -26.5521 H            1 FDA2001   0.0000
    72 H8M2        16.6852     4.7881   -28.1556 H            1 FDA2001   0.0000
    73 H8M3        15.5206     3.9922   -27.3328 H            1 FDA2001   0.0000
    74 H21         18.1253     4.0873   -25.1900 H            1 FDA2001   0.0000
    75 H1'1        19.8482     2.7054   -22.4158 H            1 FDA2001   0.0000
    76 H1'2        18.5931     3.3361   -23.2487 H            1 FDA2001   0.0000
    77 H2'         20.2566     4.8082   -24.3012 H            1 FDA2001   0.0000
    78 H25         21.9167     3.3522   -23.2695 H            1 FDA2001   0.0000
    79 H3'         20.2572     6.3787   -22.5201 H            1 FDA2001   0.0000
    80 H27         19.4368     5.6753   -20.5150 H            1 FDA2001   0.0000
    81 H4'         17.6790     5.0859   -22.4455 H            1 FDA2001   0.0000
    82 H29         18.8482     6.4674   -24.5168 H            1 FDA2001   0.0000
    83 H5'1        17.9081     7.0252   -21.0079 H            1 FDA2001   0.0000
    84 H5'2        16.8165     7.3213   -22.1857 H            1 FDA2001   0.0000
@<TRIPOS>BOND
     1    1    2      ar
     2    1    3      ar
     3    1    4       1
     4    1   53       1
     5    4    5       1
     6    5    6       1
     7    6    7       1
     8    6    8       1
     9    7   12       1
    10    8    9       1
    11    8   10       1
    12   10   11       1
    13   10   12       1
    14   12   13       1
    15   13   14       1
    16   13   22       1
    17   14   15       2
    18   15   16       1
    19   16   17      ar
    20   16   22      ar
    21   17   18       1
    22   17   19      ar
    23   19   20      ar
    24   20   21      ar
    25   21   22      ar
    26   23   24       1
    27   23   40       2
    28   24   25       2
    29   24   26       1
    30   26   27       1
    31   27   28       2
    32   27   29       1
    33   29   30       2
    34   29   40       1
    35   30   31       1
    36   31   32      ar
    37   31   38      ar
    38   32   33      ar
    39   33   34       1
    40   33   35      ar
    41   35   36       1
    42   35   37      ar
    43   37   38      ar
    44   38   39       1
    45   39   40       1
    46   39   41       1
    47   41   42       1
    48   42   43       1
    49   42   44       1
    50   44   45       1
    51   44   46       1
    52   46   47       1
    53   46   48       1
    54   48   49       1
    55   49   50       1
    56   50   51      ar
    57   50   52      ar
    58   50   53       1
    59   48   84       1
    60    5   54       1
    61    5   55       1
    62    6   56       1
    63    8   57       1
    64    9   58       1
    65   10   59       1
    66   11   60       1
    67   12   61       1
    68   14   62       1
    69   18   63       1
    70   18   64       1
    71   20   65       1
    72   26   66       1
    73   32   67       1
    74   34   68       1
    75   34   69       1
    76   34   70       1
    77   36   71       1
    78   36   72       1
    79   36   73       1
    80   37   74       1
    81   41   75       1
    82   41   76       1
    83   42   77       1
    84   43   78       1
    85   44   79       1
    86   45   80       1
    87   46   81       1
    88   47   82       1
    89   48   83       1
@<TRIPOS>SUBSTRUCTURE
     1 FDA2001     1 GROUP             4 A     FDA     0 **** FDA A2001
