@<TRIPOS>MOLECULE
3a4l_ANP_1_ligand
   44    46     1     0     0
SMALL
NO_CHARGES


@<TRIPOS>ATOM
     1 PG         -11.4710    -5.7400     8.4200 P.3          1 ANP301   0.0000
     2 O1G        -12.6890    -6.4910     8.9460 O.co2        1 ANP301   0.0000
     3 O2G        -11.9410    -4.7320     7.4120 O.co2        1 ANP301  -1.0000
     4 O3G        -10.6240    -5.2510     9.5430 O.co2        1 ANP301  -1.0000
     5 PB          -9.1060    -6.5400     6.9240 P.3          1 ANP301   0.0000
     6 O1B         -8.1840    -5.8990     7.8870 O.co2        1 ANP301   0.0000
     7 O2B         -9.2040    -5.8850     5.5870 O.co2        1 ANP301  -1.0000
     8 N3B        -10.5640    -6.8350     7.6040 N.3          1 ANP301   0.0000
     9 PA          -7.6000    -8.9090     7.5260 P.3          1 ANP301   0.0000
    10 O1A         -8.2780    -9.0880     8.8660 O.co2        1 ANP301   0.0000
    11 O2A         -6.1330    -8.5590     7.4240 O.co2        1 ANP301  -1.0000
    12 O3A         -8.5200    -8.0080     6.5600 O.3          1 ANP301   0.0000
    13 O5'         -7.7310   -10.3060     6.7250 O.3          1 ANP301   0.0000
    14 C5'         -9.0260   -10.9050     6.6250 C.3          1 ANP301   0.0000
    15 C4'         -8.7650   -12.3580     6.2420 C.3          1 ANP301   0.0000
    16 O4'         -8.1020   -12.4380     4.9770 O.3          1 ANP301   0.0000
    17 C3'         -7.8490   -12.9860     7.2710 C.3          1 ANP301   0.0000
    18 O3'         -8.4130   -14.2600     7.6170 O.3          1 ANP301   0.0000
    19 C2'         -6.5190   -13.1540     6.5740 C.3          1 ANP301   0.0000
    20 O2'         -5.8820   -14.3740     6.9590 O.3          1 ANP301   0.0000
    21 C1'         -6.8660   -13.1530     5.1000 C.3          1 ANP301   0.0000
    22 N9          -5.8670   -12.4000     4.3330 N.pl3        1 ANP301   0.0000
    23 C8          -5.4660   -11.1310     4.5850 C.2          1 ANP301   0.0000
    24 N7          -4.5430   -10.7190     3.6730 N.2          1 ANP301   0.0000
    25 C5          -4.3560   -11.7350     2.8160 C.ar         1 ANP301   0.0000
    26 C6          -3.5140   -11.9560     1.6150 C.ar         1 ANP301   0.0000
    27 N6          -2.6800   -10.9880     1.1690 N.pl3        1 ANP301   0.0000
    28 N1          -3.5990   -13.1600     1.0070 N.ar         1 ANP301   0.0000
    29 C2          -4.4300   -14.1180     1.4700 C.ar         1 ANP301   0.0000
    30 N3          -5.2240   -13.9790     2.5450 N.ar         1 ANP301   0.0000
    31 C4          -5.2200   -12.8330     3.2550 C.ar         1 ANP301   0.0000
    32 H3B        -10.4087    -7.5833     8.2490 H            1 ANP301   0.0000
    33 H5'1        -9.5701   -10.4489     5.9208 H            1 ANP301   0.0000
    34 H5'2        -9.5048   -10.8538     7.5014 H            1 ANP301   0.0000
    35 H4'         -9.6291   -12.8600     6.2050 H            1 ANP301   0.0000
    36 H3'         -7.7605   -12.4014     8.0775 H            1 ANP301   0.0000
    37 H6          -7.7587   -14.9843     7.3997 H            1 ANP301   0.0000
    38 H2'         -5.9241   -12.3782     6.7842 H            1 ANP301   0.0000
    39 H8          -5.7413   -14.9460     6.1509 H            1 ANP301   0.0000
    40 H1'         -6.9558   -14.0863     4.7524 H            1 ANP301   0.0000
    41 H10         -5.8035   -10.5706     5.3413 H            1 ANP301   0.0000
    42 H11         -2.1168   -11.1477     0.3582 H            1 ANP301   0.0000
    43 H12         -2.6269   -10.1130     1.6502 H            1 ANP301   0.0000
    44 H13         -4.4564   -14.9894     0.9801 H            1 ANP301   0.0000
@<TRIPOS>BOND
     1    1    2      ar
     2    1    3      ar
     3    1    4      ar
     4    1    8       1
     5    5    6      ar
     6    5    7      ar
     7    5    8       1
     8    5   12       1
     9    9   10      ar
    10    9   11      ar
    11    9   12       1
    12    9   13       1
    13   13   14       1
    14   14   15       1
    15   15   16       1
    16   15   17       1
    17   16   21       1
    18   17   18       1
    19   17   19       1
    20   19   20       1
    21   19   21       1
    22   21   22       1
    23   22   23       1
    24   22   31       1
    25   23   24       2
    26   24   25       1
    27   25   26      ar
    28   25   31      ar
    29   26   27       1
    30   26   28      ar
    31   28   29      ar
    32   29   30      ar
    33   30   31      ar
    34   29   44       1
    35   27   43       1
    36   27   42       1
    37    8   32       1
    38   23   41       1
    39   14   33       1
    40   14   34       1
    41   15   35       1
    42   17   36       1
    43   18   37       1
    44   19   38       1
    45   20   39       1
    46   21   40       1
@<TRIPOS>SUBSTRUCTURE
     1 ANP301      1 GROUP             4 A     ANP     0 **** ANP A 301
