@<TRIPOS>MOLECULE
3had_NAD_1_ligand
   70    74     1     0     0
SMALL
NO_CHARGES


@<TRIPOS>ATOM
     1 PA          42.5700    36.0450    30.7790 P.3          1 NAD350   0.0000
     2 O1A         43.9510    35.7050    30.4100 O.co2        1 NAD350   0.0000
     3 O2A         41.7270    35.0920    31.6440 O.co2        1 NAD350  -1.0000
     4 O5B         41.6190    36.2550    29.4700 O.3          1 NAD350   0.0000
     5 C5B         41.9470    37.2340    28.4220 C.3          1 NAD350   0.0000
     6 C4B         41.2480    36.7620    27.1600 C.3          1 NAD350   0.0000
     7 O4B         41.6150    37.8020    26.1430 O.3          1 NAD350   0.0000
     8 C3B         41.7950    35.4360    26.5140 C.3          1 NAD350   0.0000
     9 O3B         40.6400    34.4850    26.3640 O.3          1 NAD350   0.0000
    10 C2B         42.4210    35.7610    25.1860 C.3          1 NAD350   0.0000
    11 O2B         42.3680    34.9080    24.1450 O.3          1 NAD350   0.0000
    12 C1B         41.7730    37.1480    24.9140 C.3          1 NAD350   0.0000
    13 N9A         42.6360    37.9800    24.1200 N.pl3        1 NAD350   0.0000
    14 C8A         43.9600    38.3400    24.1300 C.2          1 NAD350   0.0000
    15 N7A         44.3550    39.1600    23.1720 N.2          1 NAD350   0.0000
    16 C5A         43.2530    39.3960    22.4420 C.ar         1 NAD350   0.0000
    17 C6A         43.0190    40.2380    21.2150 C.ar         1 NAD350   0.0000
    18 N6A         43.9450    40.9350    20.6170 N.pl3        1 NAD350   0.0000
    19 N1A         41.7210    40.1820    20.8100 N.ar         1 NAD350   0.0000
    20 C2A         40.6820    39.5160    21.3240 C.ar         1 NAD350   0.0000
    21 N3A         40.8480    38.7050    22.4790 N.ar         1 NAD350   0.0000
    22 C4A         42.1510    38.6850    22.9890 C.ar         1 NAD350   0.0000
    23 O3          42.5190    37.4140    31.4870 O.3          1 NAD350   0.0000
    24 PN          41.7210    38.2060    32.5490 P.3          1 NAD350   0.0000
    25 O1N         42.1290    37.7820    33.8950 O.co2        1 NAD350   0.0000
    26 O2N         40.2650    38.0370    32.2200 O.co2        1 NAD350  -1.0000
    27 O5D         42.1470    39.7600    32.5210 O.3          1 NAD350   0.0000
    28 C5D         41.8380    40.4580    31.2440 C.3          1 NAD350   0.0000
    29 C4D         41.9540    41.9390    31.5070 C.3          1 NAD350   0.0000
    30 O4D         41.2240    42.2610    32.7640 O.3          1 NAD350   0.0000
    31 C3D         43.3740    42.5220    31.8130 C.3          1 NAD350   0.0000
    32 O3D         43.4640    43.8450    31.2490 O.3          1 NAD350   0.0000
    33 C2D         43.5340    42.5860    33.3370 C.3          1 NAD350   0.0000
    34 O2D         44.5050    43.4850    33.8290 O.3          1 NAD350   0.0000
    35 C1D         42.0770    42.9540    33.7690 C.3          1 NAD350   0.0000
    36 N1N         41.5710    42.5140    35.1310 N.ar         1 NAD350   1.0000
    37 C2N         41.9330    41.2950    35.7210 C.ar         1 NAD350   0.0000
    38 C3N         41.4130    40.9960    36.9560 C.ar         1 NAD350   0.0000
    39 C7N         41.7690    39.6820    37.6460 C.2          1 NAD350   0.0000
    40 O7N         42.1390    39.5470    38.7980 O.2          1 NAD350   0.0000
    41 N7N         41.6130    38.5570    36.7850 N.am         1 NAD350   0.0000
    42 C4N         40.4960    41.8930    37.6920 C.ar         1 NAD350   0.0000
    43 C5N         40.2020    43.0930    37.0000 C.ar         1 NAD350   0.0000
    44 C6N         40.6780    43.4380    35.7930 C.ar         1 NAD350   0.0000
    45 H5B1        42.9359    37.2676    28.2775 H            1 NAD350   0.0000
    46 H5B2        41.6169    38.1417    28.6812 H            1 NAD350   0.0000
    47 H4B         40.2575    36.7183    27.2906 H            1 NAD350   0.0000
    48 H3B         42.4832    35.0315    27.1163 H            1 NAD350   0.0000
    49 H5          39.9443    34.8959    25.7748 H            1 NAD350   0.0000
    50 H2B         43.3903    35.9311    25.3638 H            1 NAD350   0.0000
    51 H7          41.5477    35.0931    23.6038 H            1 NAD350   0.0000
    52 H1B         40.8873    37.0357    24.4634 H            1 NAD350   0.0000
    53 H8A         44.5927    37.9997    24.8256 H            1 NAD350   0.0000
    54 H6A1        43.7197    41.4730    19.8047 H            1 NAD350   0.0000
    55 H6A2        44.8803    40.9314    20.9707 H            1 NAD350   0.0000
    56 H2A         39.7826    39.5890    20.8931 H            1 NAD350   0.0000
    57 H5D1        40.9097    40.2343    30.9470 H            1 NAD350   0.0000
    58 H5D2        42.4896    40.1834    30.5369 H            1 NAD350   0.0000
    59 H4D         41.5448    42.4440    30.7470 H            1 NAD350   0.0000
    60 H3D         44.0790    41.9325    31.4187 H            1 NAD350   0.0000
    61 H17         44.0879    44.4001    31.7990 H            1 NAD350   0.0000
    62 H2D         43.7462    41.6692    33.6753 H            1 NAD350   0.0000
    63 H19         44.8760    43.1367    34.6898 H            1 NAD350   0.0000
    64 H1D         41.9501    43.9417    33.6781 H            1 NAD350   0.0000
    65 H2N         42.5518    40.6618    35.2560 H            1 NAD350   0.0000
    66 H7N1        41.8158    37.6376    37.1219 H            1 NAD350   0.0000
    67 H7N2        41.3007    38.6871    35.8439 H            1 NAD350   0.0000
    68 H4N         40.1197    41.6732    38.5920 H            1 NAD350   0.0000
    69 H5N         39.5861    43.7399    37.4496 H            1 NAD350   0.0000
    70 H6N         40.4232    44.3056    35.3660 H            1 NAD350   0.0000
@<TRIPOS>BOND
     1    1    2      ar
     2    1    3      ar
     3    1    4       1
     4    1   23       1
     5    4    5       1
     6    5    6       1
     7    6    7       1
     8    6    8       1
     9    7   12       1
    10    8    9       1
    11    8   10       1
    12   10   11       1
    13   10   12       1
    14   12   13       1
    15   13   14       1
    16   13   22       1
    17   14   15       2
    18   15   16       1
    19   16   17      ar
    20   16   22      ar
    21   17   18       1
    22   17   19      ar
    23   19   20      ar
    24   20   21      ar
    25   21   22      ar
    26   23   24       1
    27   24   25      ar
    28   24   26      ar
    29   24   27       1
    30   27   28       1
    31   28   29       1
    32   29   30       1
    33   29   31       1
    34   30   35       1
    35   31   32       1
    36   31   33       1
    37   33   34       1
    38   33   35       1
    39   35   36       1
    40   36   37      ar
    41   36   44      ar
    42   37   38      ar
    43   38   39       1
    44   38   42      ar
    45   39   40       2
    46   39   41      am
    47   42   43      ar
    48   43   44      ar
    49   44   70       1
    50    5   45       1
    51    5   46       1
    52    6   47       1
    53    8   48       1
    54    9   49       1
    55   10   50       1
    56   11   51       1
    57   12   52       1
    58   14   53       1
    59   18   54       1
    60   18   55       1
    61   20   56       1
    62   43   69       1
    63   28   57       1
    64   28   58       1
    65   29   59       1
    66   31   60       1
    67   32   61       1
    68   33   62       1
    69   34   63       1
    70   35   64       1
    71   37   65       1
    72   41   66       1
    73   41   67       1
    74   42   68       1
@<TRIPOS>SUBSTRUCTURE
     1 NAD350      1 GROUP             4 A     NAD     0 **** NAD A 350
