@<TRIPOS>MOLECULE
2wr8_SAH_1_ligand
   46    48     1     0     0
SMALL
NO_CHARGES


@<TRIPOS>ATOM
     1 N           17.5030   -42.0960     7.0680 N.4          1 SAH1257   1.0000
     2 CA          17.6730   -43.1640     6.0600 C.3          1 SAH1257   0.0000
     3 CB          16.2790   -43.6400     5.5350 C.3          1 SAH1257   0.0000
     4 CG          16.2900   -45.0380     4.9190 C.3          1 SAH1257   0.0000
     5 SD          14.5580   -45.5190     4.4340 S.3          1 SAH1257   0.0000
     6 C           18.4890   -42.6760     4.8770 C.2          1 SAH1257   0.0000
     7 O           18.5710   -41.4450     4.6540 O.co2        1 SAH1257   0.0000
     8 OXT         19.0410   -43.5620     4.1930 O.co2        1 SAH1257  -1.0000
     9 C5'         14.7660   -47.3070     4.1410 C.3          1 SAH1257   0.0000
    10 C4'         14.4190   -48.2510     5.2610 C.3          1 SAH1257   0.0000
    11 O4'         15.1730   -47.8750     6.4330 O.3          1 SAH1257   0.0000
    12 C3'         12.9500   -48.1050     5.6990 C.3          1 SAH1257   0.0000
    13 O3'         12.1320   -49.0510     5.0200 O.3          1 SAH1257   0.0000
    14 C2'         13.0220   -48.3300     7.2320 C.3          1 SAH1257   0.0000
    15 O2'         12.2760   -49.5020     7.5920 O.3          1 SAH1257   0.0000
    16 C1'         14.5370   -48.4890     7.5430 C.3          1 SAH1257   0.0000
    17 N9          14.8580   -47.6200     8.7120 N.pl3        1 SAH1257   0.0000
    18 C8          14.8210   -46.2610     8.7530 C.2          1 SAH1257   0.0000
    19 N7          15.1720   -45.8330     9.9880 N.2          1 SAH1257   0.0000
    20 C5          15.4500   -46.9320    10.7120 C.ar         1 SAH1257   0.0000
    21 C6          15.8610   -47.0980    12.0410 C.ar         1 SAH1257   0.0000
    22 N6          16.0190   -46.0270    12.8760 N.pl3        1 SAH1257   0.0000
    23 N1          16.0820   -48.3500    12.4820 N.ar         1 SAH1257   0.0000
    24 C2          15.9060   -49.4190    11.6790 C.ar         1 SAH1257   0.0000
    25 N3          15.5380   -49.3080    10.3860 N.ar         1 SAH1257   0.0000
    26 C4          15.2810   -48.0540     9.8940 C.ar         1 SAH1257   0.0000
    27 H1          18.4006   -41.8007     7.3954 H            1 SAH1257   0.0000
    28 H2          17.0272   -41.3198     6.6543 H            1 SAH1257   0.0000
    29 HA          18.1435   -43.9386     6.4826 H            1 SAH1257   0.0000
    30 HB1         15.9673   -42.9926     4.8395 H            1 SAH1257   0.0000
    31 HB2         15.6375   -43.6396     6.3021 H            1 SAH1257   0.0000
    32 HG1         16.6429   -45.6934     5.5868 H            1 SAH1257   0.0000
    33 HG2         16.8755   -45.0401     4.1083 H            1 SAH1257   0.0000
    34 H5'1        15.7265   -47.4607     3.9092 H            1 SAH1257   0.0000
    35 H5'2        14.1915   -47.5491     3.3591 H            1 SAH1257   0.0000
    36 H4'         14.6179   -49.1959     5.0010 H            1 SAH1257   0.0000
    37 H3'         12.6286   -47.1778     5.5064 H            1 SAH1257   0.0000
    38 H12         12.6982   -49.6019     4.4068 H            1 SAH1257   0.0000
    39 H2'         12.6569   -47.5321     7.7117 H            1 SAH1257   0.0000
    40 H14         11.8777   -49.9091     6.7701 H            1 SAH1257   0.0000
    41 H1'         14.8122   -49.4413     7.6751 H            1 SAH1257   0.0000
    42 H16         14.5723   -45.6682     7.9870 H            1 SAH1257   0.0000
    43 H17         16.3133   -46.1690    13.8211 H            1 SAH1257   0.0000
    44 H18         15.8402   -45.1017    12.5416 H            1 SAH1257   0.0000
    45 H19         16.0545   -50.3324    12.0580 H            1 SAH1257   0.0000
    46 H20         16.9663   -42.4450     7.8362 H            1 SAH1257   0.0000
@<TRIPOS>BOND
     1    1    2       1
     2    2    3       1
     3    2    6       1
     4    3    4       1
     5    4    5       1
     6    5    9       1
     7    6    7      ar
     8    6    8      ar
     9    9   10       1
    10   10   11       1
    11   10   12       1
    12   11   16       1
    13   12   13       1
    14   12   14       1
    15   14   15       1
    16   14   16       1
    17   16   17       1
    18   17   18       1
    19   17   26       1
    20   18   19       2
    21   19   20       1
    22   20   21      ar
    23   20   26      ar
    24   21   22       1
    25   21   23      ar
    26   23   24      ar
    27   24   25      ar
    28   25   26      ar
    29    1   27       1
    30    1   28       1
    31    2   29       1
    32    3   30       1
    33    3   31       1
    34    4   32       1
    35    4   33       1
    36    1   46       1
    37    9   34       1
    38    9   35       1
    39   10   36       1
    40   12   37       1
    41   13   38       1
    42   14   39       1
    43   15   40       1
    44   16   41       1
    45   18   42       1
    46   22   43       1
    47   22   44       1
    48   24   45       1
@<TRIPOS>SUBSTRUCTURE
     1 SAH1257     1 GROUP             4 A     SAH     0 **** SAH A1257
