@<TRIPOS>MOLECULE
1gl3_NDP_1_ligand
   73    77     1     0     0
SMALL
NO_CHARGES


@<TRIPOS>ATOM
     1 PA          -1.1860    52.0020    12.5270 P.3          1 NDP601   0.0000
     2 O1A         -0.0440    52.5310    13.3030 O.co2        1 NDP601   0.0000
     3 O2A         -2.5620    52.2290    13.0330 O.co2        1 NDP601  -1.0000
     4 O5B         -1.0590    52.4760    10.9980 O.3          1 NDP601   0.0000
     5 C5B         -2.1310    52.2500    10.0680 C.3          1 NDP601   0.0000
     6 C4B         -2.7270    53.5280     9.5090 C.3          1 NDP601   0.0000
     7 O4B         -3.0910    54.4260    10.5580 O.3          1 NDP601   0.0000
     8 C3B         -1.7960    54.3350     8.6430 C.3          1 NDP601   0.0000
     9 O3B         -1.5820    53.7880     7.3470 O.3          1 NDP601   0.0000
    10 C2B         -2.4650    55.7150     8.6980 C.3          1 NDP601   0.0000
    11 O2B         -3.4670    55.9920     7.6930 O.3          1 NDP601   0.0000
    12 C1B         -3.1310    55.7790    10.0820 C.3          1 NDP601   0.0000
    13 N9A         -2.5950    56.7030    11.1400 N.pl3        1 NDP601   0.0000
    14 C8A         -3.3840    57.5350    11.8510 C.2          1 NDP601   0.0000
    15 N7A         -2.7000    58.3010    12.7160 N.2          1 NDP601   0.0000
    16 C5A         -1.4510    57.9110    12.5140 C.ar         1 NDP601   0.0000
    17 C6A         -0.3040    58.4080    13.1530 C.ar         1 NDP601   0.0000
    18 N6A         -0.3960    59.3530    14.0850 N.pl3        1 NDP601   0.0000
    19 N1A          0.9100    57.8790    12.8020 N.ar         1 NDP601   0.0000
    20 C2A          1.0290    56.9070    11.8700 C.ar         1 NDP601   0.0000
    21 N3A         -0.0830    56.4400    11.2590 N.ar         1 NDP601   0.0000
    22 C4A         -1.3330    56.9150    11.5490 C.ar         1 NDP601   0.0000
    23 O3          -1.0120    50.4170    12.3430 O.3          1 NDP601   0.0000
    24 PN           0.1720    49.3590    12.5680 P.3          1 NDP601   0.0000
    25 O1N          0.2990    49.1370    14.0260 O.co2        1 NDP601   0.0000
    26 O2N          1.3750    49.7410    11.7980 O.co2        1 NDP601  -1.0000
    27 O5D         -0.4430    48.0120    11.9580 O.3          1 NDP601   0.0000
    28 C5D         -1.0740    47.7990    10.6760 C.3          1 NDP601   0.0000
    29 C4D         -1.5500    46.3470    10.5110 C.3          1 NDP601   0.0000
    30 O4D         -0.4420    45.4860    10.8460 O.3          1 NDP601   0.0000
    31 C3D         -2.6730    45.8980    11.4550 C.3          1 NDP601   0.0000
    32 O3D         -3.5870    45.0300    10.7790 O.3          1 NDP601   0.0000
    33 C2D         -1.9930    45.2080    12.6400 C.3          1 NDP601   0.0000
    34 O2D         -2.7790    44.3340    13.4700 O.3          1 NDP601   0.0000
    35 C1D         -0.7920    44.5670    11.9250 C.3          1 NDP601   0.0000
    36 N1N          0.4380    44.3340    12.7420 N.ar         1 NDP601   1.0000
    37 C2N          0.9050    45.2710    13.7250 C.ar         1 NDP601   0.0000
    38 C3N          2.1240    45.0670    14.3950 C.ar         1 NDP601   0.0000
    39 C7N          2.6290    46.1010    15.4310 C.2          1 NDP601   0.0000
    40 O7N          3.5970    45.8580    16.1530 O.2          1 NDP601   0.0000
    41 N7N          1.9830    47.2690    15.4900 N.am         1 NDP601   0.0000
    42 C4N          2.8580    43.8950    14.0560 C.ar         1 NDP601   0.0000
    43 C5N          2.4200    42.9440    13.0970 C.ar         1 NDP601   0.0000
    44 C6N          1.1990    43.1670    12.4360 C.ar         1 NDP601   0.0000
    45 P2B         -3.1020    56.7660     6.3050 P.3          1 NDP601   0.0000
    46 O1X         -1.6440    57.1920     6.3660 O.co2        1 NDP601   0.0000
    47 O2X         -3.3810    55.7520     5.2020 O.co2        1 NDP601  -1.0000
    48 O3X         -4.0310    57.9680     6.2420 O.co2        1 NDP601  -1.0000
    49 H5B1        -2.8541    51.7418    10.5359 H            1 NDP601   0.0000
    50 H5B2        -1.7798    51.7051     9.3066 H            1 NDP601   0.0000
    51 H4B         -3.5445    53.2996     8.9802 H            1 NDP601   0.0000
    52 H3B         -0.9121    54.3969     9.1065 H            1 NDP601   0.0000
    53 H5          -2.2652    54.1527     6.7143 H            1 NDP601   0.0000
    54 H2B         -1.7562    56.4187     8.6488 H            1 NDP601   0.0000
    55 H1B         -4.0920    56.0159     9.9391 H            1 NDP601   0.0000
    56 H8A         -4.3774    57.5769    11.7446 H            1 NDP601   0.0000
    57 H6A1         0.4300    59.6971    14.5314 H            1 NDP601   0.0000
    58 H6A2        -1.2912    59.7192    14.3391 H            1 NDP601   0.0000
    59 H2A          1.9283    56.5380    11.6354 H            1 NDP601   0.0000
    60 H5D1        -0.4165    48.0087     9.9523 H            1 NDP601   0.0000
    61 H5D2        -1.8622    48.4094    10.5973 H            1 NDP601   0.0000
    62 H4D         -1.8244    46.1886     9.5625 H            1 NDP601   0.0000
    63 H3D         -3.1670    46.7030    11.7835 H            1 NDP601   0.0000
    64 H16         -4.3096    44.7496    11.4108 H            1 NDP601   0.0000
    65 H2D         -1.6320    45.9287    13.2318 H            1 NDP601   0.0000
    66 H18         -2.7780    44.6765    14.4095 H            1 NDP601   0.0000
    67 H1D         -1.0822    43.6974    11.5254 H            1 NDP601   0.0000
    68 H2N          0.3556    46.0796    13.9358 H            1 NDP601   0.0000
    69 H7N1         2.2729    47.9683    16.1435 H            1 NDP601   0.0000
    70 H7N2         1.2096    47.4440    14.8807 H            1 NDP601   0.0000
    71 H4N          3.7296    43.7328    14.5186 H            1 NDP601   0.0000
    72 H5N          2.9685    42.1324    12.8958 H            1 NDP601   0.0000
    73 H6N          0.8668    42.5126    11.7567 H            1 NDP601   0.0000
@<TRIPOS>BOND
     1    1    2      ar
     2    1    3      ar
     3    1    4       1
     4    1   23       1
     5    4    5       1
     6    5    6       1
     7    6    7       1
     8    6    8       1
     9    7   12       1
    10    8    9       1
    11    8   10       1
    12   10   11       1
    13   10   12       1
    14   11   45       1
    15   12   13       1
    16   13   14       1
    17   13   22       1
    18   14   15       2
    19   15   16       1
    20   16   17      ar
    21   16   22      ar
    22   17   18       1
    23   17   19      ar
    24   19   20      ar
    25   20   21      ar
    26   21   22      ar
    27   23   24       1
    28   24   25      ar
    29   24   26      ar
    30   24   27       1
    31   27   28       1
    32   28   29       1
    33   29   30       1
    34   29   31       1
    35   30   35       1
    36   31   32       1
    37   31   33       1
    38   33   34       1
    39   33   35       1
    40   35   36       1
    41   36   37      ar
    42   36   44      ar
    43   37   38      ar
    44   38   39       1
    45   38   42      ar
    46   39   40       2
    47   39   41      am
    48   42   43      ar
    49   43   44      ar
    50   45   46      ar
    51   45   47      ar
    52   45   48      ar
    53   43   72       1
    54    5   49       1
    55    5   50       1
    56    6   51       1
    57    8   52       1
    58    9   53       1
    59   10   54       1
    60   12   55       1
    61   14   56       1
    62   18   57       1
    63   18   58       1
    64   20   59       1
    65   44   73       1
    66   28   60       1
    67   28   61       1
    68   29   62       1
    69   31   63       1
    70   32   64       1
    71   33   65       1
    72   34   66       1
    73   35   67       1
    74   37   68       1
    75   41   69       1
    76   41   70       1
    77   42   71       1
@<TRIPOS>SUBSTRUCTURE
     1 NDP601      1 GROUP             4 A     NDP     0 **** NDP A 601
