@<TRIPOS>MOLECULE
./coach420/1bqo/ligand.pdb
 34 35 0 0 0
SMALL
GASTEIGER

@<TRIPOS>ATOM
      1 ZN         -1.1430   50.6530   54.0450 Zn    301  ZN301       0.0000
      2  C2         3.7130   49.4900   55.4530 C.3   401  N25401      0.0000
      3  C3         3.2370   49.1770   56.7950 C.3   401  N25401      0.0000
      4  C4         2.4180   47.9900   57.0030 C.2   401  N25401      0.0000
      5  C5         2.0140   47.1210   55.9120 C.2   401  N25401      0.0000
      6  C6         2.4780   47.4190   54.5640 C.3   401  N25401      0.0000
      7  O7         2.0120   47.5280   58.1940 O.2   401  N25401      0.0000
      8  C8         2.5440   48.0860   59.2890 C.3   401  N25401      0.0000
      9  N9         3.5020   50.0930   51.9530 N.3   401  N25401      0.0000
     10  S10        4.0650   48.6710   52.7060 S.3   401  N25401      0.0000
     11  O11        5.5090   48.7260   52.7520 O.3   401  N25401      0.0000
     12  O12        3.7150   47.6060   51.8130 O.3   401  N25401      0.0000
     13  C13        2.1570   50.3200   51.4250 C.3   401  N25401      0.0000
     14  N14        2.1750   50.9270   50.0930 N.3   401  N25401      0.0000
     15  C15        2.6570   52.3080   50.2790 C.3   401  N25401      0.0000
     16  C16        3.9350   52.3800   51.0890 C.3   401  N25401      0.0000
     17  C17        3.9910   51.4430   52.2790 C.3   401  N25401      0.0000
     18  C18        3.9490   53.8060   51.5880 C.3   401  N25401      0.0000
     19  C19        5.1420   52.0030   50.2370 C.3   401  N25401      0.0000
     20  S20        0.8660   50.6730   49.0300 S.O2  401  N25401      0.0000
     21  O21        0.6910   49.2620   48.7570 O.2   401  N25401      0.0000
     22  O22        1.1610   51.4860   47.8860 O.2   401  N25401      0.0000
     23  C23        0.8890   50.1660   52.2680 C.2   401  N25401      0.0000
     24  N25        0.2950   48.9820   52.3440 N.2   401  N25401      0.0000
     25  C27       -0.7000   51.3100   49.6620 C.ar  401  N25401      0.0000
     26  C28       -1.6180   50.2390   50.0370 C.ar  401  N25401      0.0000
     27  C29       -2.9690   50.6320   50.3930 C.ar  401  N25401      0.0000
     28  C30       -3.2890   52.0490   50.3410 C.ar  401  N25401      0.0000
     29  C31       -2.3560   53.1080   49.9980 C.ar  401  N25401      0.0000
     30  C32       -0.9980   52.7370   49.6400 C.ar  401  N25401      0.0000
     31  O33       -4.5680   52.3730   50.5330 O.3   401  N25401      0.0000
     32  C34       -5.2220   52.1800   49.3750 C.3   401  N25401      0.0000
     33  O24        0.3980   51.1110   52.8920 O.2   401  N25401      0.0000
     34  O26       -0.9690   49.1610   52.9340 O.2   401  N25401      0.0000
@<TRIPOS>BOND
     1     1    33    1
     2     1    34    1
     3     2     3    1
     4     3     4    1
     5     4     5    2
     6     4     7    1
     7     5     6    1
     8     7     8    1
     9     9    13    1
    10     9    17    1
    11     9    10    1
    12    10    12    1
    13    10    11    1
    14    13    14    1
    15    13    23    1
    16    14    20    1
    17    14    15    1
    18    15    16    1
    19    16    19    1
    20    16    18    1
    21    16    17    1
    22    20    22    2
    23    20    21    2
    24    20    25    1
    25    23    24    2
    26    23    33    1
    27    24    34    1
    28    25    30   ar
    29    25    26   ar
    30    26    27   ar
    31    27    28   ar
    32    28    29   ar
    33    28    31    1
    34    29    30   ar
    35    31    32    1
