@<TRIPOS>MOLECULE
2yj6_A99_2_ligand
   63    66     1     0     0
SMALL
NO_CHARGES


@<TRIPOS>ATOM
     1 C'           3.2320   -15.0480    13.3120 C.3          1 A991636   0.0000
     2 N1          -5.8000   -14.8770    15.4310 N.ar         1 A991636   1.0000
     3 C2          -5.3790   -15.8880    16.2000 C.ar         1 A991636   0.0000
     4 N3          -4.4270   -15.7500    17.1300 N.ar         1 A991636   0.0000
     5 C4          -3.8450   -14.5410    17.3390 C.ar         1 A991636   0.0000
     6 C5          -4.2390   -13.3840    16.5330 C.ar         1 A991636   0.0000
     7 C6          -5.3070   -13.6140    15.5190 C.ar         1 A991636   0.0000
     8 N6          -5.7720   -12.6150    14.7080 N.pl3        1 A991636   0.0000
     9 N7          -3.4910   -12.3570    16.9740 N.2          1 A991636   0.0000
    10 C8          -2.6810   -12.8130    17.9650 C.2          1 A991636   0.0000
    11 N9          -2.9010   -14.1200    18.1750 N.pl3        1 A991636   0.0000
    12 PA           1.2430   -11.3000    18.8870 P.3          1 A991636   0.0000
    13 PB           3.3210   -12.2080    17.2120 P.3          1 A991636   0.0000
    14 PG           3.5500   -14.7050    16.0080 P.3          1 A991636   0.0000
    15 O'L          5.3050   -14.6390     9.9240 O.co2        1 A991636   0.0000
    16 O'M          6.2960   -14.2910    11.7500 O.co2        1 A991636  -1.0000
    17 C1'          5.4410   -17.3630    11.0600 C.ar         1 A991636   0.0000
    18 O1A          2.1940   -10.7390    19.9150 O.co2        1 A991636   0.0000
    19 C1B         -2.2590   -15.0310    19.1490 C.3          1 A991636   0.0000
    20 O1B          3.2850   -10.8020    16.6680 O.co2        1 A991636   0.0000
    21 O1G          5.0520   -14.6660    15.9550 O.co2        1 A991636   0.0000
    22 C2'          4.9680   -16.1610    11.5860 C.ar         1 A991636   0.0000
    23 N2'          5.5430   -14.9820    11.0740 N.2          1 A991636   1.0000
    24 O2'         -1.0550   -17.0580    18.9600 O.3          1 A991636   0.0000
    25 O2A          0.5810   -10.4070    17.8640 O.co2        1 A991636  -1.0000
    26 C2B         -1.1410   -15.7420    18.4200 C.3          1 A991636   0.0000
    27 O2B          4.5110   -12.7330    17.9720 O.co2        1 A991636  -1.0000
    28 O2G          2.9450   -15.3960    14.6810 O.3          1 A991636   0.0000
    29 C3'          3.8950   -16.2120    12.6390 C.ar         1 A991636   0.0000
    30 O3'          1.2090   -15.8500    18.7800 O.3          1 A991636   0.0000
    31 O3A          2.0090   -12.4600    18.0930 O.3          1 A991636   0.0000
    32 C3B          0.0920   -14.9600    18.7930 C.3          1 A991636   0.0000
    33 O3B          3.0470   -13.1870    15.9690 O.3          1 A991636   0.0000
    34 O3G          2.8450   -15.3660    17.1600 O.co2        1 A991636  -1.0000
    35 C4'          3.4280   -17.4670    13.0240 C.ar         1 A991636   0.0000
    36 O4'         -1.6650   -14.3200    20.2380 O.3          1 A991636   0.0000
    37 C4B         -0.2400   -14.4680    20.1990 C.3          1 A991636   0.0000
    38 C5'          3.9410   -18.6380    12.4690 C.ar         1 A991636   0.0000
    39 O5'          0.1040   -12.1580    19.6210 O.3          1 A991636   0.0000
    40 C5B          0.4580   -13.1590    20.5670 C.3          1 A991636   0.0000
    41 C6'          4.9340   -18.5860    11.4930 C.ar         1 A991636   0.0000
    42 CM'          3.9800   -13.7220    13.1970 C.3          1 A991636   0.0000
    43 H'           2.3501   -14.9194    12.8584 H            1 A991636   0.0000
    44 H2          -5.7952   -16.7885    16.0737 H            1 A991636   0.0000
    45 H3          -5.3970   -11.6914    14.7872 H            1 A991636   0.0000
    46 H4          -6.4868   -12.8085    14.0360 H            1 A991636   0.0000
    47 H5          -2.0178   -12.2560    18.4649 H            1 A991636   0.0000
    48 H1'          6.1557   -17.3466    10.3607 H            1 A991636   0.0000
    49 H1B         -2.9243   -15.6943    19.4917 H            1 A991636   0.0000
    50 H2'         -0.3228   -17.5600    18.4997 H            1 A991636   0.0000
    51 H2B         -1.2895   -15.7540    17.4312 H            1 A991636   0.0000
    52 H3'          1.8825   -15.5299    18.1137 H            1 A991636   0.0000
    53 H3B          0.2351   -14.1931    18.1674 H            1 A991636   0.0000
    54 H4'          2.7077   -17.5290    13.7149 H            1 A991636   0.0000
    55 H4B          0.0282   -15.1713    20.8573 H            1 A991636   0.0000
    56 H5'          3.5929   -19.5244    12.7743 H            1 A991636   0.0000
    57 H5B1         1.4488   -13.2938    20.5563 H            1 A991636   0.0000
    58 H5B2         0.1705   -12.8721    21.4808 H            1 A991636   0.0000
    59 H6'          5.2862   -19.4351    11.0994 H            1 A991636   0.0000
    60 HM'1         4.1571   -13.5217    12.2334 H            1 A991636   0.0000
    61 HM'2         3.4247   -12.9906    13.5929 H            1 A991636   0.0000
    62 HM'3         4.8481   -13.7852    13.6893 H            1 A991636   0.0000
    63 H21         -6.5149   -15.0607    14.7563 H            1 A991636   0.0000
@<TRIPOS>BOND
     1    1   28       1
     2    1   29       1
     3    1   42       1
     4    2    3      ar
     5    2    7      ar
     6    3    4      ar
     7    4    5      ar
     8    5    6      ar
     9    5   11       1
    10    6    7      ar
    11    6    9       1
    12    7    8       1
    13    9   10       2
    14   10   11       1
    15   11   19       1
    16   12   18      ar
    17   12   25      ar
    18   12   31       1
    19   12   39       1
    20   13   20      ar
    21   13   27      ar
    22   13   31       1
    23   13   33       1
    24   14   21      ar
    25   14   28       1
    26   14   33       1
    27   14   34      ar
    28   15   23      ar
    29   16   23      ar
    30   17   22      ar
    31   17   41      ar
    32   19   26       1
    33   19   36       1
    34   22   23       1
    35   22   29      ar
    36   24   26       1
    37   26   32       1
    38   29   35      ar
    39   30   32       1
    40   32   37       1
    41   35   38      ar
    42   36   37       1
    43   37   40       1
    44   38   41      ar
    45   39   40       1
    46    1   43       1
    47    3   44       1
    48    8   45       1
    49    8   46       1
    50   10   47       1
    51   17   48       1
    52   42   62       1
    53   19   49       1
    54   42   61       1
    55   42   60       1
    56   24   50       1
    57   26   51       1
    58   30   52       1
    59   32   53       1
    60   35   54       1
    61   37   55       1
    62   38   56       1
    63   40   57       1
    64   40   58       1
    65   41   59       1
    66    2   63       1
@<TRIPOS>SUBSTRUCTURE
     1 A991636     1 GROUP             4 B     A99     0 **** A99 B1636
