@<TRIPOS>MOLECULE
3ag6_PAJ_1_ligand
   55    57     1     0     0
SMALL
NO_CHARGES


@<TRIPOS>ATOM
     1 P           -5.2700    -4.9890   -42.9640 P.3          1 PAJ501   0.0000
     2 O1P         -6.7130    -4.8560   -43.2620 O.co2        1 PAJ501   0.0000
     3 O2P         -4.6900    -6.2740   -43.7250 O.co2        1 PAJ501  -1.0000
     4 O5'         -4.4920    -3.6690   -43.4760 O.3          1 PAJ501   0.0000
     5 C5'         -3.1260    -3.6480   -42.9890 C.3          1 PAJ501   0.0000
     6 C4'         -2.6070    -2.2150   -43.1830 C.3          1 PAJ501   0.0000
     7 O4'         -2.7440    -1.9430   -44.5910 O.3          1 PAJ501   0.0000
     8 C3'         -3.5290    -1.2430   -42.4180 C.3          1 PAJ501   0.0000
     9 O3'         -2.7320    -0.3530   -41.6180 O.3          1 PAJ501   0.0000
    10 C2'         -4.2750    -0.4850   -43.5280 C.3          1 PAJ501   0.0000
    11 O2'         -4.6140     0.8570   -43.1710 O.3          1 PAJ501   0.0000
    12 C1'         -3.3060    -0.6110   -44.7240 C.3          1 PAJ501   0.0000
    13 N9          -4.0270    -0.4960   -45.9880 N.pl3        1 PAJ501   0.0000
    14 C8          -5.0080    -1.3280   -46.4620 C.2          1 PAJ501   0.0000
    15 N7          -5.4200    -0.9160   -47.6250 N.2          1 PAJ501   0.0000
    16 C5          -4.7320     0.1990   -47.9680 C.ar         1 PAJ501   0.0000
    17 C6          -4.7270     1.0820   -49.0830 C.ar         1 PAJ501   0.0000
    18 N6          -5.5810     0.8730   -50.1460 N.pl3        1 PAJ501   0.0000
    19 N1          -3.8710     2.1310   -49.0820 N.ar         1 PAJ501   0.0000
    20 C2          -3.0340     2.3560   -48.0660 C.ar         1 PAJ501   0.0000
    21 N3          -3.0060     1.5500   -46.9990 N.ar         1 PAJ501   0.0000
    22 C4          -3.8250     0.4780   -46.9150 C.ar         1 PAJ501   0.0000
    23 O11         -5.6160    -3.1480   -40.6710 O.2          1 PAJ501   0.0000
    24 C11         -5.4120    -4.3220   -40.3940 C.2          1 PAJ501   0.0000
    25 O12         -5.0650    -5.2200   -41.3550 O.3          1 PAJ501   0.0000
    26 C12         -5.5350    -4.8010   -38.9450 C.3          1 PAJ501   0.0000
    27 O13         -6.3800    -3.9140   -38.2110 O.3          1 PAJ501   0.0000
    28 C13         -4.1430    -4.9150   -38.2160 C.3          1 PAJ501   0.0000
    29 C14         -3.1810    -5.8350   -38.9920 C.3          1 PAJ501   0.0000
    30 C15         -3.4880    -3.5290   -38.0530 C.3          1 PAJ501   0.0000
    31 C16         -4.3500    -5.5140   -36.8090 C.3          1 PAJ501   0.0000
    32 O14         -4.9810    -6.7980   -36.8990 O.3          1 PAJ501   0.0000
    33 H5'1        -2.5648    -4.2908   -43.5104 H            1 PAJ501   0.0000
    34 H5'2        -3.1022    -3.8945   -42.0201 H            1 PAJ501   0.0000
    35 H4'         -1.6565    -2.1274   -42.8850 H            1 PAJ501   0.0000
    36 H3'         -4.1733    -1.7487   -41.8443 H            1 PAJ501   0.0000
    37 H5          -1.8905    -0.8169   -41.3411 H            1 PAJ501   0.0000
    38 H2'         -5.1162    -0.9807   -43.7442 H            1 PAJ501   0.0000
    39 H7          -5.6068     0.9712   -43.2084 H            1 PAJ501   0.0000
    40 H1'         -2.5862     0.0808   -44.6666 H            1 PAJ501   0.0000
    41 H9          -5.3561    -2.1341   -45.9835 H            1 PAJ501   0.0000
    42 H10         -5.5709     1.4987   -50.9260 H            1 PAJ501   0.0000
    43 H11         -6.2101     0.0958   -50.1366 H            1 PAJ501   0.0000
    44 H12         -2.4166     3.1418   -48.1037 H            1 PAJ501   0.0000
    45 H13         -5.9605    -5.7059   -38.9498 H            1 PAJ501   0.0000
    46 H14         -6.3067    -2.9923   -38.5919 H            1 PAJ501   0.0000
    47 H15         -2.3078    -5.8887   -38.5076 H            1 PAJ501   0.0000
    48 H16         -3.5793    -6.7495   -39.0635 H            1 PAJ501   0.0000
    49 H17         -3.0315    -5.4639   -39.9085 H            1 PAJ501   0.0000
    50 H18         -2.6080    -3.6287   -37.5887 H            1 PAJ501   0.0000
    51 H19         -3.3449    -3.1199   -38.9542 H            1 PAJ501   0.0000
    52 H20         -4.0862    -2.9393   -37.5104 H            1 PAJ501   0.0000
    53 H21         -4.9280    -4.9000   -36.2715 H            1 PAJ501   0.0000
    54 H22         -3.4622    -5.6142   -36.3599 H            1 PAJ501   0.0000
    55 H23         -5.8508    -6.7773   -36.4060 H            1 PAJ501   0.0000
@<TRIPOS>BOND
     1    1    2      ar
     2    1    3      ar
     3    1    4       1
     4    1   25       1
     5    4    5       1
     6    5    6       1
     7    6    7       1
     8    6    8       1
     9    7   12       1
    10    8    9       1
    11    8   10       1
    12   10   11       1
    13   10   12       1
    14   12   13       1
    15   13   14       1
    16   13   22       1
    17   14   15       2
    18   15   16       1
    19   16   17      ar
    20   16   22      ar
    21   17   18       1
    22   17   19      ar
    23   19   20      ar
    24   20   21      ar
    25   21   22      ar
    26   23   24       2
    27   24   25       1
    28   24   26       1
    29   26   27       1
    30   26   28       1
    31   28   29       1
    32   28   30       1
    33   28   31       1
    34   31   32       1
    35   32   55       1
    36    5   33       1
    37    5   34       1
    38    6   35       1
    39    8   36       1
    40    9   37       1
    41   10   38       1
    42   11   39       1
    43   12   40       1
    44   14   41       1
    45   18   42       1
    46   18   43       1
    47   20   44       1
    48   26   45       1
    49   27   46       1
    50   29   47       1
    51   29   48       1
    52   29   49       1
    53   30   50       1
    54   30   51       1
    55   30   52       1
    56   31   53       1
    57   31   54       1
@<TRIPOS>SUBSTRUCTURE
     1 PAJ501      1 GROUP             4 A     PAJ     0 **** PAJ A 501
