@<TRIPOS>MOLECULE
4zp1_TPP_3_ligand
   43    44     1     0     0
SMALL
NO_CHARGES


@<TRIPOS>ATOM
     1 N1'         -1.1930     6.0300    86.9000 N.ar         1 TPP603   1.0000
     2 C2'         -0.5800     4.8110    86.6910 C.ar         1 TPP603   0.0000
     3 CM2          0.9120     4.7090    86.8400 C.3          1 TPP603   0.0000
     4 N3'         -1.3380     3.7010    86.3490 N.ar         1 TPP603   0.0000
     5 C4'         -2.7140     3.8090    86.2170 C.ar         1 TPP603   0.0000
     6 N4'         -3.4320     2.7370    85.8870 N.pl3        1 TPP603   0.0000
     7 C5'         -3.3370     5.0430    86.4220 C.ar         1 TPP603   0.0000
     8 C6'         -2.5620     6.1450    86.7690 C.ar         1 TPP603   0.0000
     9 C7'         -4.8380     5.2310    86.2990 C.3          1 TPP603   0.0000
    10 N3          -5.3640     5.1340    84.9520 N.2          1 TPP603   1.0000
    11 C2          -5.9850     4.0070    84.4490 C.2          1 TPP603   0.0000
    12 S1          -6.4860     4.1740    82.9370 S.3          1 TPP603   0.0000
    13 C5          -5.9440     5.6750    82.8450 C.2          1 TPP603   0.0000
    14 C4          -5.3430     6.1240    84.0210 C.2          1 TPP603   0.0000
    15 CM4         -4.7490     7.4910    84.2180 C.3          1 TPP603   0.0000
    16 C6          -6.1830     6.3590    81.5160 C.3          1 TPP603   0.0000
    17 C7          -5.4730     5.6770    80.3390 C.3          1 TPP603   0.0000
    18 O7          -5.4100     6.5580    79.2260 O.3          1 TPP603   0.0000
    19 PA          -5.1750     6.0500    77.7020 P.3          1 TPP603   0.0000
    20 O1A         -5.2600     7.2150    76.7320 O.co2        1 TPP603   0.0000
    21 O2A         -3.8230     5.3730    77.5920 O.co2        1 TPP603  -1.0000
    22 O3A         -6.3590     4.9740    77.4190 O.3          1 TPP603   0.0000
    23 PB          -7.7600     5.2720    76.6620 P.3          1 TPP603   0.0000
    24 O1B         -7.7270     4.6330    75.2920 O.co2        1 TPP603   0.0000
    25 O2B         -8.0340     6.7540    76.5260 O.co2        1 TPP603  -1.0000
    26 O3B         -8.8820     4.6460    77.4560 O.co2        1 TPP603  -1.0000
    27 HM21         1.2017     3.7694    86.6578 H            1 TPP603   0.0000
    28 HM22         1.3549     5.3264    86.1899 H            1 TPP603   0.0000
    29 HM23         1.1721     4.9633    87.7715 H            1 TPP603   0.0000
    30 H4'1        -4.4246     2.8103    85.7907 H            1 TPP603   0.0000
    31 H4'2        -2.9785     1.8587    85.7355 H            1 TPP603   0.0000
    32 H6'         -3.0015     7.0296    86.9251 H            1 TPP603   0.0000
    33 H7'1        -5.0665     6.1368    86.6558 H            1 TPP603   0.0000
    34 H7'2        -5.2841     4.5308    86.8564 H            1 TPP603   0.0000
    35 H9          -6.1097     3.1677    84.9781 H            1 TPP603   0.0000
    36 HM41        -4.8637     8.0279    83.3822 H            1 TPP603   0.0000
    37 HM42        -5.2132     7.9501    84.9755 H            1 TPP603   0.0000
    38 HM43        -3.7750     7.4042    84.4274 H            1 TPP603   0.0000
    39 H13         -5.8537     7.3010    81.5813 H            1 TPP603   0.0000
    40 H14         -7.1663     6.3615    81.3338 H            1 TPP603   0.0000
    41 H15         -5.9786     4.8539    80.0804 H            1 TPP603   0.0000
    42 H16         -4.5450     5.4255    80.6140 H            1 TPP603   0.0000
    43 H1'         -0.6452     6.8296    87.1463 H            1 TPP603   0.0000
@<TRIPOS>BOND
     1    1    2      ar
     2    1    8      ar
     3    2    3       1
     4    2    4      ar
     5    4    5      ar
     6    5    6       1
     7    5    7      ar
     8    7    8      ar
     9    7    9       1
    10    9   10       1
    11   10   11       2
    12   10   14       1
    13   11   12       1
    14   12   13       1
    15   13   14       2
    16   13   16       1
    17   14   15       1
    18   16   17       1
    19   17   18       1
    20   18   19       1
    21   19   20      ar
    22   19   21      ar
    23   19   22       1
    24   22   23       1
    25   23   24      ar
    26   23   25      ar
    27   23   26      ar
    28    3   27       1
    29    3   28       1
    30    3   29       1
    31    6   30       1
    32    6   31       1
    33    8   32       1
    34    9   33       1
    35    9   34       1
    36   11   35       1
    37   15   36       1
    38   15   37       1
    39   15   38       1
    40   16   39       1
    41   16   40       1
    42   17   41       1
    43   17   42       1
    44    1   43       1
@<TRIPOS>SUBSTRUCTURE
     1 TPP603      1 GROUP             4 C     TPP     0 **** TPP C 603
