@<TRIPOS>MOLECULE
3ldg_SAH_1_ligand
   46    48     1     0     0
SMALL
NO_CHARGES


@<TRIPOS>ATOM
     1 N           68.0880    72.1500    36.8330 N.4          1 SAH385   1.0000
     2 CA          69.1990    71.3470    36.3040 C.3          1 SAH385   0.0000
     3 CB          70.1200    70.8100    37.4060 C.3          1 SAH385   0.0000
     4 CG          70.4940    71.8370    38.4860 C.3          1 SAH385   0.0000
     5 SD          71.5370    71.0860    39.7800 S.3          1 SAH385   0.0000
     6 C           68.7590    70.2370    35.3330 C.2          1 SAH385   0.0000
     7 O           69.6030    69.6060    34.7040 O.co2        1 SAH385   0.0000
     8 OXT         67.5700    69.9470    35.1400 O.co2        1 SAH385  -1.0000
     9 C5'         72.5130    72.5520    40.1160 C.3          1 SAH385   0.0000
    10 C4'         73.5780    72.8520    39.0580 C.3          1 SAH385   0.0000
    11 O4'         74.3030    73.9930    39.4850 O.3          1 SAH385   0.0000
    12 C3'         74.5970    71.7360    38.8160 C.3          1 SAH385   0.0000
    13 O3'         74.5690    71.3120    37.4380 O.3          1 SAH385   0.0000
    14 C2'         75.9290    72.3840    39.2150 C.3          1 SAH385   0.0000
    15 O2'         77.0320    72.0170    38.4270 O.3          1 SAH385   0.0000
    16 C1'         75.6250    73.8700    39.0320 C.3          1 SAH385   0.0000
    17 N9          76.4930    74.7790    39.7830 N.pl3        1 SAH385   0.0000
    18 C8          76.9760    74.5960    41.0560 C.2          1 SAH385   0.0000
    19 N7          77.7330    75.6700    41.3750 N.2          1 SAH385   0.0000
    20 C5          77.7530    76.5410    40.3260 C.ar         1 SAH385   0.0000
    21 C6          78.3750    77.7830    40.1180 C.ar         1 SAH385   0.0000
    22 N6          79.1440    78.3700    41.0590 N.pl3        1 SAH385   0.0000
    23 N1          78.1900    78.4230    38.9010 N.ar         1 SAH385   0.0000
    24 C2          77.4080    77.8590    37.9100 C.ar         1 SAH385   0.0000
    25 N3          76.8000    76.6260    38.1280 N.ar         1 SAH385   0.0000
    26 C4          76.9720    75.9820    39.3150 C.ar         1 SAH385   0.0000
    27 H1          68.3664    73.1089    36.8881 H            1 SAH385   0.0000
    28 H2          67.2978    72.0667    36.2258 H            1 SAH385   0.0000
    29 HA          69.7578    71.9764    35.7639 H            1 SAH385   0.0000
    30 HB1         70.9638    70.4874    36.9772 H            1 SAH385   0.0000
    31 HB2         69.6583    70.0431    37.8518 H            1 SAH385   0.0000
    32 HG1         69.6570    72.1885    38.9053 H            1 SAH385   0.0000
    33 HG2         70.9951    72.5902    38.0599 H            1 SAH385   0.0000
    34 H5'1        72.9712    72.4289    40.9963 H            1 SAH385   0.0000
    35 H5'2        71.8940    73.3356    40.1691 H            1 SAH385   0.0000
    36 H4'         73.1223    73.0649    38.1937 H            1 SAH385   0.0000
    37 H3'         74.4019    70.9600    39.4158 H            1 SAH385   0.0000
    38 H12         74.7911    72.0869    36.8462 H            1 SAH385   0.0000
    39 H2'         76.1227    72.1943    40.1775 H            1 SAH385   0.0000
    40 H14         77.1177    72.6503    37.6579 H            1 SAH385   0.0000
    41 H1'         75.6655    74.0999    38.0596 H            1 SAH385   0.0000
    42 H16         76.7988    73.8067    41.6438 H            1 SAH385   0.0000
    43 H17         79.5710    79.2553    40.8749 H            1 SAH385   0.0000
    44 H18         79.2868    77.9196    41.9403 H            1 SAH385   0.0000
    45 H19         77.2797    78.3351    37.0400 H            1 SAH385   0.0000
    46 H20         67.8436    71.8209    37.7451 H            1 SAH385   0.0000
@<TRIPOS>BOND
     1    1    2       1
     2    2    3       1
     3    2    6       1
     4    3    4       1
     5    4    5       1
     6    5    9       1
     7    6    7      ar
     8    6    8      ar
     9    9   10       1
    10   10   11       1
    11   10   12       1
    12   11   16       1
    13   12   13       1
    14   12   14       1
    15   14   15       1
    16   14   16       1
    17   16   17       1
    18   17   18       1
    19   17   26       1
    20   18   19       2
    21   19   20       1
    22   20   21      ar
    23   20   26      ar
    24   21   22       1
    25   21   23      ar
    26   23   24      ar
    27   24   25      ar
    28   25   26      ar
    29    1   27       1
    30    1   28       1
    31    2   29       1
    32    3   30       1
    33    3   31       1
    34    4   32       1
    35    4   33       1
    36    1   46       1
    37    9   34       1
    38    9   35       1
    39   10   36       1
    40   12   37       1
    41   13   38       1
    42   14   39       1
    43   15   40       1
    44   16   41       1
    45   18   42       1
    46   22   43       1
    47   22   44       1
    48   24   45       1
@<TRIPOS>SUBSTRUCTURE
     1 SAH385      1 GROUP             4 A     SAH     0 **** SAH A 385
