@<TRIPOS>MOLECULE
1u08_PLP_1_ligand
   26    26     1     0     0
SMALL
NO_CHARGES


@<TRIPOS>ATOM
     1 N1          15.1110    14.7030    16.1030 N.ar         1 PLP400   1.0000
     2 C2          14.8590    16.0600    15.9130 C.ar         1 PLP400   0.0000
     3 C2A         15.5690    16.7150    14.7280 C.3          1 PLP400   0.0000
     4 C3          13.9930    16.6920    16.7910 C.ar         1 PLP400   0.0000
     5 O3          13.7810    18.0240    16.5650 O.3          1 PLP400   0.0000
     6 C4          13.3810    16.0120    17.8660 C.ar         1 PLP400   0.0000
     7 C4A         12.4320    16.7170    18.8460 C.3          1 PLP400   0.0000
     8 C5          13.6340    14.6300    18.0580 C.ar         1 PLP400   0.0000
     9 C6          14.5090    14.0330    17.1530 C.ar         1 PLP400   0.0000
    10 C5A         13.0500    13.7620    19.1650 C.3          1 PLP400   0.0000
    11 O4P         12.0090    12.8790    18.8120 O.3          1 PLP400   0.0000
    12 P           11.1240    12.1650    19.8880 P.3          1 PLP400   0.0000
    13 O1P         10.1990    11.3400    19.0610 O.co2        1 PLP400   0.0000
    14 O2P         10.3900    13.2300    20.6240 O.co2        1 PLP400  -1.0000
    15 O3P         11.9740    11.3500    20.7600 O.co2        1 PLP400  -1.0000
    16 H2A1        15.3201    17.6825    14.6836 H            1 PLP400   0.0000
    17 H2A2        16.5586    16.6304    14.8441 H            1 PLP400   0.0000
    18 H2A3        15.2927    16.2605    13.8812 H            1 PLP400   0.0000
    19 H4          13.1671    18.5409    17.1616 H            1 PLP400   0.0000
    20 H4A1        12.1098    16.0608    19.5284 H            1 PLP400   0.0000
    21 H4A2        12.9181    17.4618    19.3032 H            1 PLP400   0.0000
    22 H4A3        11.6501    17.0875    18.3446 H            1 PLP400   0.0000
    23 H8          14.7143    13.0613    17.2695 H            1 PLP400   0.0000
    24 H5A1        12.6977    14.3743    19.8728 H            1 PLP400   0.0000
    25 H5A2        13.7959    13.2122    19.5410 H            1 PLP400   0.0000
    26 H11         15.7249    14.2150    15.4825 H            1 PLP400   0.0000
@<TRIPOS>BOND
     1    1    2      ar
     2    1    9      ar
     3    2    3       1
     4    2    4      ar
     5    4    5       1
     6    4    6      ar
     7    6    7       1
     8    6    8      ar
     9    8    9      ar
    10    8   10       1
    11   10   11       1
    12   11   12       1
    13   12   13      ar
    14   12   14      ar
    15   12   15      ar
    16    3   16       1
    17    3   17       1
    18    3   18       1
    19    5   19       1
    20    7   20       1
    21    7   21       1
    22    7   22       1
    23    9   23       1
    24   10   24       1
    25   10   25       1
    26    1   26       1
@<TRIPOS>SUBSTRUCTURE
     1 PLP400      1 GROUP             4 A     PLP     0 **** PLP A 400
