@<TRIPOS>MOLECULE
2x1l_ADN_1_ligand
   32    34     1     0     0
SMALL
NO_CHARGES


@<TRIPOS>ATOM
     1 O5'          2.6170    25.5740   -20.6400 O.3          1 ADN601   0.0000
     2 C5'          2.6620    25.5910   -22.0720 C.3          1 ADN601   0.0000
     3 C4'          4.0830    25.8500   -22.5640 C.3          1 ADN601   0.0000
     4 O4'          4.6470    27.0100   -21.9360 O.3          1 ADN601   0.0000
     5 C3'          5.0090    24.6780   -22.2670 C.3          1 ADN601   0.0000
     6 O3'          5.5920    24.2120   -23.4870 O.3          1 ADN601   0.0000
     7 C2'          6.0720    25.2460   -21.3450 C.3          1 ADN601   0.0000
     8 O2'          7.3680    24.7200   -21.6340 O.3          1 ADN601   0.0000
     9 C1'          6.0110    26.7450   -21.5970 C.3          1 ADN601   0.0000
    10 N9           6.4590    27.5150   -20.4070 N.pl3        1 ADN601   0.0000
    11 C8           5.8310    27.5890   -19.2180 C.2          1 ADN601   0.0000
    12 N7           6.5160    28.3760   -18.3490 N.2          1 ADN601   0.0000
    13 C5           7.6120    28.8260   -18.9850 C.ar         1 ADN601   0.0000
    14 C6           8.7670    29.7000   -18.6490 C.ar         1 ADN601   0.0000
    15 N6           8.8810    30.2690   -17.4240 N.pl3        1 ADN601   0.0000
    16 N1           9.6990    29.9150   -19.6120 N.ar         1 ADN601   0.0000
    17 C2           9.5990    29.3590   -20.8380 C.ar         1 ADN601   0.0000
    18 N3           8.5800    28.5550   -21.2070 N.ar         1 ADN601   0.0000
    19 C4           7.5720    28.2550   -20.3430 C.ar         1 ADN601   0.0000
    20 H5'          2.2876    24.6831   -20.3274 H            1 ADN601   0.0000
    21 H5'1         2.0604    26.3144   -22.4108 H            1 ADN601   0.0000
    22 H5'2         2.3498    24.7073   -22.4207 H            1 ADN601   0.0000
    23 H4'          4.0592    25.9988   -23.5526 H            1 ADN601   0.0000
    24 H3'          4.5081    23.9410   -21.8133 H            1 ADN601   0.0000
    25 H6           5.6786    24.9748   -24.1278 H            1 ADN601   0.0000
    26 H2'          5.8329    25.0528   -20.3934 H            1 ADN601   0.0000
    27 H8           7.5199    23.8924   -21.0937 H            1 ADN601   0.0000
    28 H1'          6.5949    26.9726   -22.3763 H            1 ADN601   0.0000
    29 H10          4.9718    27.1247   -19.0030 H            1 ADN601   0.0000
    30 H11          9.6647    30.8541   -17.2155 H            1 ADN601   0.0000
    31 H12          8.1814    30.1036   -16.7288 H            1 ADN601   0.0000
    32 H13         10.3167    29.5528   -21.5069 H            1 ADN601   0.0000
@<TRIPOS>BOND
     1    1    2       1
     2    2    3       1
     3    3    4       1
     4    3    5       1
     5    4    9       1
     6    5    6       1
     7    5    7       1
     8    7    8       1
     9    7    9       1
    10    9   10       1
    11   10   11       1
    12   10   19       1
    13   11   12       2
    14   12   13       1
    15   13   14      ar
    16   13   19      ar
    17   14   15       1
    18   14   16      ar
    19   16   17      ar
    20   17   18      ar
    21   18   19      ar
    22    1   20       1
    23    2   21       1
    24    2   22       1
    25    3   23       1
    26    5   24       1
    27    6   25       1
    28    7   26       1
    29    8   27       1
    30    9   28       1
    31   11   29       1
    32   15   30       1
    33   15   31       1
    34   17   32       1
@<TRIPOS>SUBSTRUCTURE
     1 ADN601      1 GROUP             4 A     ADN     0 **** ADN A 601
