@<TRIPOS>MOLECULE
3bbp_GTP_2_ligand
   44    46     1     0     0
SMALL
NO_CHARGES


@<TRIPOS>ATOM
     1 PG          76.9490   -33.4990    39.6580 P.3          1 GTP500   0.0000
     2 O1G         77.2310   -32.2340    40.4240 O.co2        1 GTP500   0.0000
     3 O2G         77.8770   -33.5070    38.4690 O.co2        1 GTP500  -1.0000
     4 O3G         75.4940   -33.5840    39.2320 O.co2        1 GTP500  -1.0000
     5 O3B         77.2550   -34.7310    40.6450 O.3          1 GTP500   0.0000
     6 PB          76.2660   -34.9840    41.8890 P.3          1 GTP500   0.0000
     7 O1B         76.8310   -34.3440    43.1320 O.co2        1 GTP500   0.0000
     8 O2B         74.9160   -34.4070    41.5510 O.co2        1 GTP500  -1.0000
     9 O3A         76.1120   -36.5750    42.1080 O.3          1 GTP500   0.0000
    10 PA          75.3010   -37.5480    41.1080 P.3          1 GTP500   0.0000
    11 O1A         74.1180   -38.0460    41.8980 O.co2        1 GTP500   0.0000
    12 O2A         74.8680   -36.8800    39.8200 O.co2        1 GTP500  -1.0000
    13 O5'         76.2800   -38.7930    40.8200 O.3          1 GTP500   0.0000
    14 C5'         76.8970   -39.4480    41.9000 C.3          1 GTP500   0.0000
    15 C4'         77.4120   -40.8070    41.4650 C.3          1 GTP500   0.0000
    16 O4'         77.6070   -41.5640    42.6390 O.3          1 GTP500   0.0000
    17 C3'         76.3610   -41.5230    40.6430 C.3          1 GTP500   0.0000
    18 O3'         77.0230   -42.3740    39.7420 O.3          1 GTP500   0.0000
    19 C2'         75.6180   -42.3520    41.6620 C.3          1 GTP500   0.0000
    20 O2'         75.1300   -43.5470    41.0940 O.3          1 GTP500   0.0000
    21 C1'         76.6540   -42.6030    42.7510 C.3          1 GTP500   0.0000
    22 N9          76.0130   -42.4980    44.0710 N.pl3        1 GTP500   0.0000
    23 C8          75.2400   -41.4640    44.5360 C.2          1 GTP500   0.0000
    24 N7          74.8710   -41.7540    45.8070 N.2          1 GTP500   0.0000
    25 C5          75.4180   -42.9400    46.1680 C.2          1 GTP500   0.0000
    26 C6          75.3700   -43.6920    47.3410 C.2          1 GTP500   0.0000
    27 O6          74.7330   -43.2980    48.3180 O.2          1 GTP500   0.0000
    28 N1          76.0470   -44.8930    47.4060 N.pl3        1 GTP500   0.0000
    29 C2          76.7650   -45.3420    46.3150 C.2          1 GTP500   0.0000
    30 N2          77.4180   -46.4980    46.3780 N.pl3        1 GTP500   0.0000
    31 N3          76.8080   -44.5920    45.1570 N.2          1 GTP500   0.0000
    32 C4          76.1460   -43.4120    45.0830 C.2          1 GTP500   0.0000
    33 H5'1        76.2319   -39.5675    42.6372 H            1 GTP500   0.0000
    34 H5'2        77.6625   -38.8944    42.2281 H            1 GTP500   0.0000
    35 H4'         78.2659   -40.7175    40.9523 H            1 GTP500   0.0000
    36 H3'         75.7555   -40.8812    40.1724 H            1 GTP500   0.0000
    37 H5          76.4475   -43.1690    39.5503 H            1 GTP500   0.0000
    38 H2'         74.8572   -41.8222    42.0368 H            1 GTP500   0.0000
    39 H7          74.2116   -43.3923    40.7299 H            1 GTP500   0.0000
    40 H1'         77.0856   -43.4974    42.6338 H            1 GTP500   0.0000
    41 H9          74.9923   -40.6403    44.0259 H            1 GTP500   0.0000
    42 H10         76.0176   -45.4384    48.2436 H            1 GTP500   0.0000
    43 H11         77.9377   -46.8224    45.5876 H            1 GTP500   0.0000
    44 H12         77.3896   -47.0433    47.2158 H            1 GTP500   0.0000
@<TRIPOS>BOND
     1    1    2      ar
     2    1    3      ar
     3    1    4      ar
     4    1    5       1
     5    5    6       1
     6    6    7      ar
     7    6    8      ar
     8    6    9       1
     9    9   10       1
    10   10   11      ar
    11   10   12      ar
    12   10   13       1
    13   13   14       1
    14   14   15       1
    15   15   16       1
    16   15   17       1
    17   16   21       1
    18   17   18       1
    19   17   19       1
    20   19   20       1
    21   19   21       1
    22   21   22       1
    23   22   23       1
    24   22   32       1
    25   23   24       2
    26   24   25       1
    27   25   26       1
    28   25   32       2
    29   26   27       2
    30   26   28       1
    31   28   29       1
    32   29   30       1
    33   29   31       2
    34   31   32       1
    35   30   44       1
    36   30   43       1
    37   28   42       1
    38   23   41       1
    39   14   33       1
    40   14   34       1
    41   15   35       1
    42   17   36       1
    43   18   37       1
    44   19   38       1
    45   20   39       1
    46   21   40       1
@<TRIPOS>SUBSTRUCTURE
     1 GTP500      1 GROUP             4 B     GTP     0 **** GTP B 500
