@<TRIPOS>MOLECULE
3g7j_GTX_1_ligand
   54    53     1     0     0
SMALL
NO_CHARGES


@<TRIPOS>ATOM
     1 N1          17.9560   -16.4640    -2.8900 N.4          1 GTX220   1.0000
     2 CA1         18.0880   -15.1070    -2.3910 C.3          1 GTX220   0.0000
     3 C1          17.3390   -14.9620    -1.1020 C.2          1 GTX220   0.0000
     4 O11         17.7000   -14.1220    -0.2500 O.co2        1 GTX220   0.0000
     5 O12         16.3320   -15.6690    -0.8850 O.co2        1 GTX220  -1.0000
     6 CB1         17.4820   -14.1450    -3.4010 C.3          1 GTX220   0.0000
     7 CG1         18.0880   -12.7530    -3.2840 C.3          1 GTX220   0.0000
     8 CD1         17.5440   -11.8790    -4.3900 C.2          1 GTX220   0.0000
     9 OE1         16.9070   -12.4480    -5.5190 O.2          1 GTX220   0.0000
    10 N2          17.7020   -10.5710    -4.2040 N.am         1 GTX220   0.0000
    11 CA2         17.6230    -9.6060    -5.2820 C.3          1 GTX220   0.0000
    12 C2          18.8630    -8.7620    -5.3460 C.2          1 GTX220   0.0000
    13 O2          19.4470    -8.2750    -4.1610 O.2          1 GTX220   0.0000
    14 CB2         16.4000    -8.7190    -5.0890 C.3          1 GTX220   0.0000
    15 SG2         14.8750    -9.6220    -4.7020 S.3          1 GTX220   0.0000
    16 C1S         14.0130    -8.8680    -6.1080 C.3          1 GTX220   0.0000
    17 C2S         13.7030    -7.3940    -5.8760 C.3          1 GTX220   0.0000
    18 C3S         12.5750    -6.9020    -6.7710 C.3          1 GTX220   0.0000
    19 C4S         12.3030    -5.4210    -6.5250 C.3          1 GTX220   0.0000
    20 C5S         11.1570    -5.2250    -5.5390 C.3          1 GTX220   0.0000
    21 C6S         11.1010    -3.7840    -5.0450 C.3          1 GTX220   0.0000
    22 N3          19.3590    -8.5190    -6.5580 N.am         1 GTX220   0.0000
    23 CA3         20.5170    -7.6720    -6.7920 C.3          1 GTX220   0.0000
    24 C3          21.7780    -8.4780    -6.9970 C.2          1 GTX220   0.0000
    25 O31         22.8050    -7.9430    -7.4730 O.co2        1 GTX220   0.0000
    26 O32         21.8220    -9.6890    -6.6900 O.co2        1 GTX220  -1.0000
    27 H1          18.4582   -16.5532    -3.7501 H            1 GTX220   0.0000
    28 H2          18.3291   -17.1039    -2.2182 H            1 GTX220   0.0000
    29 HA1         19.0536   -14.8887    -2.2500 H            1 GTX220   0.0000
    30 HB11        16.4968   -14.0844    -3.2406 H            1 GTX220   0.0000
    31 HB12        17.6488   -14.4950    -4.3228 H            1 GTX220   0.0000
    32 HG11        19.0829   -12.8136    -3.3645 H            1 GTX220   0.0000
    33 HG12        17.8488   -12.3577    -2.3972 H            1 GTX220   0.0000
    34 H8          17.8835   -10.2389    -3.2784 H            1 GTX220   0.0000
    35 HA2         17.5270   -10.0994    -6.1465 H            1 GTX220   0.0000
    36 HB21        16.2522    -8.2019    -5.9321 H            1 GTX220   0.0000
    37 HB22        16.5879    -8.0858    -4.3382 H            1 GTX220   0.0000
    38 H1S1        13.1538    -9.3572    -6.2579 H            1 GTX220   0.0000
    39 H1S2        14.5900    -8.9509    -6.9205 H            1 GTX220   0.0000
    40 H2S1        14.5247    -6.8571    -6.0673 H            1 GTX220   0.0000
    41 H2S2        13.4364    -7.2665    -4.9207 H            1 GTX220   0.0000
    42 H3S1        11.7463    -7.4258    -6.5736 H            1 GTX220   0.0000
    43 H3S2        12.8330    -7.0344    -7.7280 H            1 GTX220   0.0000
    44 H4S1        12.0644    -4.9850    -7.3928 H            1 GTX220   0.0000
    45 H4S2        13.1284    -4.9954    -6.1540 H            1 GTX220   0.0000
    46 H5S1        11.2909    -5.8337    -4.7570 H            1 GTX220   0.0000
    47 H5S2        10.2941    -5.4491    -5.9920 H            1 GTX220   0.0000
    48 H6S1        10.3428    -3.6816    -4.4011 H            1 GTX220   0.0000
    49 H6S2        11.9601    -3.5549    -4.5874 H            1 GTX220   0.0000
    50 H6S3        10.9634    -3.1702    -5.8224 H            1 GTX220   0.0000
    51 H25         18.9121    -8.9406    -7.3470 H            1 GTX220   0.0000
    52 HA31        20.6426    -7.0720    -6.0019 H            1 GTX220   0.0000
    53 HA32        20.3519    -7.1183    -7.6082 H            1 GTX220   0.0000
    54 H28         16.9898   -16.6695    -3.0453 H            1 GTX220   0.0000
@<TRIPOS>BOND
     1    1    2       1
     2    2    3       1
     3    2    6       1
     4    3    4      ar
     5    3    5      ar
     6    6    7       1
     7    7    8       1
     8    8    9       2
     9    8   10      am
    10   10   11       1
    11   11   12       1
    12   11   14       1
    13   12   13       2
    14   12   22      am
    15   14   15       1
    16   15   16       1
    17   16   17       1
    18   17   18       1
    19   18   19       1
    20   19   20       1
    21   20   21       1
    22   22   23       1
    23   23   24       1
    24   24   25      ar
    25   24   26      ar
    26    1   27       1
    27    1   28       1
    28    2   29       1
    29    1   54       1
    30    6   30       1
    31    6   31       1
    32    7   32       1
    33    7   33       1
    34   10   34       1
    35   11   35       1
    36   14   36       1
    37   14   37       1
    38   16   38       1
    39   16   39       1
    40   17   40       1
    41   17   41       1
    42   18   42       1
    43   18   43       1
    44   19   44       1
    45   19   45       1
    46   20   46       1
    47   20   47       1
    48   21   48       1
    49   21   49       1
    50   21   50       1
    51   22   51       1
    52   23   52       1
    53   23   53       1
@<TRIPOS>SUBSTRUCTURE
     1 GTX220      1 GROUP             4 A     GTX     0 **** GTX A 220
