@<TRIPOS>MOLECULE
4b4o_NDP_1_ligand
   73    77     1     0     0
SMALL
NO_CHARGES


@<TRIPOS>ATOM
     1 PA          37.6320   -53.2480   -40.8620 P.3          1 NDP999   0.0000
     2 O1A         37.0060   -54.3560   -39.9800 O.co2        1 NDP999   0.0000
     3 O2A         37.0640   -51.8140   -40.8320 O.co2        1 NDP999  -1.0000
     4 O5B         37.5500   -53.6040   -42.4520 O.3          1 NDP999   0.0000
     5 C5B         37.6150   -54.9850   -42.7950 C.3          1 NDP999   0.0000
     6 C4B         36.9060   -55.1750   -44.1120 C.3          1 NDP999   0.0000
     7 O4B         37.1730   -56.5090   -44.5390 O.3          1 NDP999   0.0000
     8 C3B         35.3900   -55.0030   -43.9720 C.3          1 NDP999   0.0000
     9 O3B         34.9020   -53.7350   -44.4960 O.3          1 NDP999   0.0000
    10 C2B         34.8110   -56.1580   -44.7750 C.3          1 NDP999   0.0000
    11 O2B         34.4790   -55.7710   -46.1000 O.3          1 NDP999   0.0000
    12 C1B         35.9460   -57.1290   -44.8930 C.3          1 NDP999   0.0000
    13 N9A         35.6650   -58.2010   -43.9350 N.pl3        1 NDP999   0.0000
    14 C8A         35.2350   -58.1640   -42.6320 C.2          1 NDP999   0.0000
    15 N7A         35.0610   -59.4760   -42.1750 N.2          1 NDP999   0.0000
    16 C5A         35.3770   -60.3100   -43.2010 C.ar         1 NDP999   0.0000
    17 C6A         35.4380   -61.7550   -43.4410 C.ar         1 NDP999   0.0000
    18 N6A         35.1490   -62.6450   -42.4690 N.pl3        1 NDP999   0.0000
    19 N1A         35.8110   -62.1950   -44.6610 N.ar         1 NDP999   0.0000
    20 C2A         36.1040   -61.3030   -45.6510 C.ar         1 NDP999   0.0000
    21 N3A         36.1000   -59.9620   -45.5040 N.ar         1 NDP999   0.0000
    22 C4A         35.7680   -59.4580   -44.3370 C.ar         1 NDP999   0.0000
    23 O3          39.1910   -53.3340   -40.4360 O.3          1 NDP999   0.0000
    24 PN          40.2330   -52.1140   -40.5920 P.3          1 NDP999   0.0000
    25 O1N         39.8340   -51.2810   -41.8000 O.co2        1 NDP999   0.0000
    26 O2N         40.3730   -51.4080   -39.2770 O.co2        1 NDP999  -1.0000
    27 O5D         41.6450   -52.9130   -40.8760 O.3          1 NDP999   0.0000
    28 C5D         41.6940   -53.6400   -42.1250 C.3          1 NDP999   0.0000
    29 C4D         42.7830   -54.6930   -42.1240 C.3          1 NDP999   0.0000
    30 O4D         43.8930   -54.0840   -41.4750 O.3          1 NDP999   0.0000
    31 C3D         42.4600   -55.9600   -41.3070 C.3          1 NDP999   0.0000
    32 O3D         42.9760   -57.1500   -41.9850 O.3          1 NDP999   0.0000
    33 C2D         43.1280   -55.7070   -39.9510 C.3          1 NDP999   0.0000
    34 O2D         43.6980   -56.8280   -39.2640 O.3          1 NDP999   0.0000
    35 C1D         44.3060   -54.8560   -40.3450 C.3          1 NDP999   0.0000
    36 N1N         44.8030   -53.9980   -39.2540 N.ar         1 NDP999   1.0000
    37 C2N         44.0090   -53.1030   -38.6500 C.ar         1 NDP999   0.0000
    38 C3N         44.4870   -52.3070   -37.6330 C.ar         1 NDP999   0.0000
    39 C7N         43.5700   -51.3220   -37.0070 C.2          1 NDP999   0.0000
    40 O7N         43.8924   -50.8494   -35.9191 O.2          1 NDP999   0.0000
    41 N7N         42.4395   -50.9615   -37.6078 N.am         1 NDP999   0.0000
    42 C4N         45.9120   -52.3710   -37.2020 C.ar         1 NDP999   0.0000
    43 C5N         46.6900   -53.3650   -37.9320 C.ar         1 NDP999   0.0000
    44 C6N         46.1040   -54.1270   -38.9260 C.ar         1 NDP999   0.0000
    45 P2B         33.0590   -56.3040   -46.7660 P.3          1 NDP999   0.0000
    46 O1X         33.2970   -57.7460   -47.1620 O.co2        1 NDP999   0.0000
    47 O2X         31.9510   -56.1520   -45.6810 O.co2        1 NDP999  -1.0000
    48 O3X         33.0410   -55.3140   -47.9570 O.co2        1 NDP999  -1.0000
    49 H5B1        37.1673   -55.5314   -42.0872 H            1 NDP999   0.0000
    50 H5B2        38.5702   -55.2683   -42.8804 H            1 NDP999   0.0000
    51 H4B         37.2605   -54.5259   -44.7850 H            1 NDP999   0.0000
    52 H3B         35.1273   -55.0947   -43.0115 H            1 NDP999   0.0000
    53 H5          34.6671   -53.8418   -45.4621 H            1 NDP999   0.0000
    54 H2B         34.0275   -56.5688   -44.3087 H            1 NDP999   0.0000
    55 H1B         35.9959   -57.4958   -45.8220 H            1 NDP999   0.0000
    56 H8A         35.0725   -57.3352   -42.0965 H            1 NDP999   0.0000
    57 H6A1        35.1981   -63.6257   -42.6583 H            1 NDP999   0.0000
    58 H6A2        34.8857   -62.3239   -41.5593 H            1 NDP999   0.0000
    59 H2A         36.3388   -61.6700   -46.5511 H            1 NDP999   0.0000
    60 H5D1        41.8695   -52.9943   -42.8681 H            1 NDP999   0.0000
    61 H5D2        40.8120   -54.0873   -42.2734 H            1 NDP999   0.0000
    62 H4D         43.0249   -54.9400   -43.0623 H            1 NDP999   0.0000
    63 H3D         41.4706   -56.0417   -41.1866 H            1 NDP999   0.0000
    64 H16         43.4280   -56.8796   -42.8351 H            1 NDP999   0.0000
    65 H2D         42.5144   -55.1993   -39.3463 H            1 NDP999   0.0000
    66 H18         44.4727   -56.5213   -38.7110 H            1 NDP999   0.0000
    67 H1D         45.0487   -55.4610   -40.6322 H            1 NDP999   0.0000
    68 H2N         43.0568   -53.0120   -38.9417 H            1 NDP999   0.0000
    69 H7N1        41.8353   -50.2918   -37.1759 H            1 NDP999   0.0000
    70 H7N2        42.1937   -51.3601   -38.4913 H            1 NDP999   0.0000
    71 H4N         46.2962   -51.7905   -36.4841 H            1 NDP999   0.0000
    72 H5N         47.6565   -53.4969   -37.7117 H            1 NDP999   0.0000
    73 H6N         46.6632   -54.7950   -39.4171 H            1 NDP999   0.0000
@<TRIPOS>BOND
     1    1    2      ar
     2    1    3      ar
     3    1    4       1
     4    1   23       1
     5    4    5       1
     6    5    6       1
     7    6    7       1
     8    6    8       1
     9    7   12       1
    10    8    9       1
    11    8   10       1
    12   10   11       1
    13   10   12       1
    14   11   45       1
    15   12   13       1
    16   13   14       1
    17   13   22       1
    18   14   15       2
    19   15   16       1
    20   16   17      ar
    21   16   22      ar
    22   17   18       1
    23   17   19      ar
    24   19   20      ar
    25   20   21      ar
    26   21   22      ar
    27   23   24       1
    28   24   25      ar
    29   24   26      ar
    30   24   27       1
    31   27   28       1
    32   28   29       1
    33   29   30       1
    34   29   31       1
    35   30   35       1
    36   31   32       1
    37   31   33       1
    38   33   34       1
    39   33   35       1
    40   35   36       1
    41   36   37      ar
    42   36   44      ar
    43   37   38      ar
    44   38   39       1
    45   38   42      ar
    46   39   40       2
    47   39   41      am
    48   42   43      ar
    49   43   44      ar
    50   45   46      ar
    51   45   47      ar
    52   45   48      ar
    53   43   72       1
    54    5   49       1
    55    5   50       1
    56    6   51       1
    57    8   52       1
    58    9   53       1
    59   10   54       1
    60   12   55       1
    61   14   56       1
    62   18   57       1
    63   18   58       1
    64   20   59       1
    65   44   73       1
    66   28   60       1
    67   28   61       1
    68   29   62       1
    69   31   63       1
    70   32   64       1
    71   33   65       1
    72   34   66       1
    73   35   67       1
    74   37   68       1
    75   41   69       1
    76   41   70       1
    77   42   71       1
@<TRIPOS>SUBSTRUCTURE
     1 NDP999      1 GROUP             4 A     NDP     0 **** NDP A 999
