@<TRIPOS>MOLECULE
4nzh_FAD_1_ligand
   84    89     1     0     0
SMALL
NO_CHARGES


@<TRIPOS>ATOM
     1 PA         -20.3040   -26.3760    21.5420 P.3          1 FAD601   0.0000
     2 O1A        -21.7260   -26.6880    21.1510 O.co2        1 FAD601   0.0000
     3 O2A        -19.4850   -25.4830    20.6500 O.co2        1 FAD601  -1.0000
     4 O5B        -20.3200   -25.7710    23.0300 O.3          1 FAD601   0.0000
     5 C5B        -19.1650   -25.1360    23.5720 C.3          1 FAD601   0.0000
     6 C4B        -19.5970   -24.0330    24.5250 C.3          1 FAD601   0.0000
     7 O4B        -18.4850   -23.5340    25.2670 O.3          1 FAD601   0.0000
     8 C3B        -20.2030   -22.8510    23.7820 C.3          1 FAD601   0.0000
     9 O3B        -21.4510   -22.5710    24.4160 O.3          1 FAD601   0.0000
    10 C2B        -19.2200   -21.7090    23.9760 C.3          1 FAD601   0.0000
    11 O2B        -19.8660   -20.4350    24.0810 O.3          1 FAD601   0.0000
    12 C1B        -18.5260   -22.1000    25.2730 C.3          1 FAD601   0.0000
    13 N9A        -17.1390   -21.5920    25.4130 N.pl3        1 FAD601   0.0000
    14 C8A        -16.1730   -21.6380    24.4790 C.2          1 FAD601   0.0000
    15 N7A        -15.0160   -21.1080    24.9550 N.2          1 FAD601   0.0000
    16 C5A        -15.2380   -20.7130    26.2200 C.ar         1 FAD601   0.0000
    17 C6A        -14.4420   -20.0710    27.2960 C.ar         1 FAD601   0.0000
    18 N6A        -13.1420   -19.7430    27.0950 N.pl3        1 FAD601   0.0000
    19 N1A        -15.0600   -19.8280    28.4770 N.ar         1 FAD601   0.0000
    20 C2A        -16.3560   -20.1510    28.6870 C.ar         1 FAD601   0.0000
    21 N3A        -17.1350   -20.7350    27.7530 N.ar         1 FAD601   0.0000
    22 C4A        -16.6420   -21.0380    26.5220 C.ar         1 FAD601   0.0000
    23 N1         -23.8180   -32.6590    15.5400 N.2          1 FAD601   0.0000
    24 C2         -24.7410   -33.6520    15.4680 C.2          1 FAD601   0.0000
    25 O2         -24.5410   -34.7040    16.1190 O.2          1 FAD601   0.0000
    26 N3         -25.8490   -33.5550    14.7040 N.pl3        1 FAD601   0.0000
    27 C4         -26.2060   -32.4160    14.0860 C.2          1 FAD601   0.0000
    28 O4         -27.2850   -32.3450    13.4480 O.2          1 FAD601   0.0000
    29 C4X        -25.2760   -31.2560    14.1690 C.2          1 FAD601   0.0000
    30 N5         -25.5400   -30.0740    13.5660 N.2          1 FAD601   0.0000
    31 C5X        -24.5990   -29.0980    13.5200 C.ar         1 FAD601   0.0000
    32 C6         -24.8310   -27.9590    12.7470 C.ar         1 FAD601   0.0000
    33 C7         -23.8740   -26.9460    12.6840 C.ar         1 FAD601   0.0000
    34 C7M        -24.1530   -25.7270    11.8390 C.3          1 FAD601   0.0000
    35 C8         -22.5950   -27.0810    13.4450 C.ar         1 FAD601   0.0000
    36 C8M        -21.5350   -26.0070    13.4040 C.3          1 FAD601   0.0000
    37 C9         -22.3650   -28.2200    14.2130 C.ar         1 FAD601   0.0000
    38 C9A        -23.3160   -29.2370    14.2850 C.ar         1 FAD601   0.0000
    39 N10        -23.0890   -30.4000    15.0680 N.pl3        1 FAD601   0.0000
    40 C10        -24.0250   -31.4550    14.9510 C.2          1 FAD601   0.0000
    41 C1'        -21.7680   -30.6710    15.6710 C.3          1 FAD601   0.0000
    42 C2'        -21.5650   -29.9590    17.0140 C.3          1 FAD601   0.0000
    43 O2'        -20.1560   -29.8790    17.2680 O.3          1 FAD601   0.0000
    44 C3'        -22.2890   -30.6270    18.1900 C.3          1 FAD601   0.0000
    45 O3'        -23.6810   -30.7290    17.8690 O.3          1 FAD601   0.0000
    46 C4'        -22.2330   -29.8550    19.5150 C.3          1 FAD601   0.0000
    47 O4'        -22.3490   -28.4450    19.2990 O.3          1 FAD601   0.0000
    48 C5'        -20.9800   -30.1430    20.3370 C.3          1 FAD601   0.0000
    49 O5'        -21.1980   -29.6250    21.6440 O.3          1 FAD601   0.0000
    50 P          -19.9900   -29.0410    22.5260 P.3          1 FAD601   0.0000
    51 O1P        -20.5560   -28.6210    23.8540 O.co2        1 FAD601   0.0000
    52 O2P        -18.8570   -30.0430    22.4650 O.co2        1 FAD601  -1.0000
    53 O3P        -19.4770   -27.7490    21.7070 O.3          1 FAD601   0.0000
    54 H5B1       -18.6214   -24.7426    22.8305 H            1 FAD601   0.0000
    55 H5B2       -18.6156   -25.8089    24.0673 H            1 FAD601   0.0000
    56 H4B        -20.2752   -24.3998    25.1618 H            1 FAD601   0.0000
    57 H3B        -20.3287   -23.0593    22.8120 H            1 FAD601   0.0000
    58 H5         -21.2934   -22.3461    25.3775 H            1 FAD601   0.0000
    59 H2B        -18.5592   -21.6960    23.2256 H            1 FAD601   0.0000
    60 H7         -20.4878   -20.4401    24.8642 H            1 FAD601   0.0000
    61 H1B        -19.0735   -21.7873    26.0492 H            1 FAD601   0.0000
    62 H8A        -16.2901   -22.0116    23.5588 H            1 FAD601   0.0000
    63 H6A1       -12.6163   -19.3109    27.8277 H            1 FAD601   0.0000
    64 H6A2       -12.7088   -19.9332    26.2140 H            1 FAD601   0.0000
    65 H2A        -16.7575   -19.9467    29.5798 H            1 FAD601   0.0000
    66 H13        -26.4278   -34.3629    14.5931 H            1 FAD601   0.0000
    67 H14        -25.6862   -27.8689    12.2366 H            1 FAD601   0.0000
    68 H7M1       -23.3784   -25.0972    11.8964 H            1 FAD601   0.0000
    69 H7M2       -24.2872   -26.0045    10.8877 H            1 FAD601   0.0000
    70 H7M3       -24.9783   -25.2717    12.1730 H            1 FAD601   0.0000
    71 H8M1       -20.7604   -26.2812    13.9739 H            1 FAD601   0.0000
    72 H8M2       -21.2265   -25.8789    12.4614 H            1 FAD601   0.0000
    73 H8M3       -21.9159   -25.1494    13.7495 H            1 FAD601   0.0000
    74 H21        -21.5071   -28.3094    14.7190 H            1 FAD601   0.0000
    75 H1'1       -21.0589   -30.3631    15.0367 H            1 FAD601   0.0000
    76 H1'2       -21.6801   -31.6565    15.8163 H            1 FAD601   0.0000
    77 H2'        -21.9159   -29.0268    16.9251 H            1 FAD601   0.0000
    78 H25        -19.8616   -30.6908    17.7723 H            1 FAD601   0.0000
    79 H3'        -21.9153   -31.5443    18.3279 H            1 FAD601   0.0000
    80 H27        -23.7890   -30.8203    16.8790 H            1 FAD601   0.0000
    81 H4'        -23.0210   -30.1399    20.0608 H            1 FAD601   0.0000
    82 H29        -21.8496   -27.9560    20.0142 H            1 FAD601   0.0000
    83 H5'1       -20.1882   -29.6964    19.9204 H            1 FAD601   0.0000
    84 H5'2       -20.8208   -31.1292    20.3827 H            1 FAD601   0.0000
@<TRIPOS>BOND
     1    1    2      ar
     2    1    3      ar
     3    1    4       1
     4    1   53       1
     5    4    5       1
     6    5    6       1
     7    6    7       1
     8    6    8       1
     9    7   12       1
    10    8    9       1
    11    8   10       1
    12   10   11       1
    13   10   12       1
    14   12   13       1
    15   13   14       1
    16   13   22       1
    17   14   15       2
    18   15   16       1
    19   16   17      ar
    20   16   22      ar
    21   17   18       1
    22   17   19      ar
    23   19   20      ar
    24   20   21      ar
    25   21   22      ar
    26   23   24       1
    27   23   40       2
    28   24   25       2
    29   24   26       1
    30   26   27       1
    31   27   28       2
    32   27   29       1
    33   29   30       2
    34   29   40       1
    35   30   31       1
    36   31   32      ar
    37   31   38      ar
    38   32   33      ar
    39   33   34       1
    40   33   35      ar
    41   35   36       1
    42   35   37      ar
    43   37   38      ar
    44   38   39       1
    45   39   40       1
    46   39   41       1
    47   41   42       1
    48   42   43       1
    49   42   44       1
    50   44   45       1
    51   44   46       1
    52   46   47       1
    53   46   48       1
    54   48   49       1
    55   49   50       1
    56   50   51      ar
    57   50   52      ar
    58   50   53       1
    59   48   84       1
    60    5   54       1
    61    5   55       1
    62    6   56       1
    63    8   57       1
    64    9   58       1
    65   10   59       1
    66   11   60       1
    67   12   61       1
    68   14   62       1
    69   18   63       1
    70   18   64       1
    71   20   65       1
    72   26   66       1
    73   32   67       1
    74   34   68       1
    75   34   69       1
    76   34   70       1
    77   36   71       1
    78   36   72       1
    79   36   73       1
    80   37   74       1
    81   41   75       1
    82   41   76       1
    83   42   77       1
    84   43   78       1
    85   44   79       1
    86   45   80       1
    87   46   81       1
    88   47   82       1
    89   48   83       1
@<TRIPOS>SUBSTRUCTURE
     1 FAD601      1 GROUP             4 A     FAD     0 **** FAD A 601
