@<TRIPOS>MOLECULE
3lnc_5GP_1_ligand
   37    39     1     0     0
SMALL
NO_CHARGES


@<TRIPOS>ATOM
     1 P           63.3810    35.2270    25.7840 P.3          1 5GP300   0.0000
     2 O1P         64.1870    36.1690    24.9380 O.co2        1 5GP300   0.0000
     3 O2P         62.6830    35.8750    26.9710 O.co2        1 5GP300  -1.0000
     4 O3P         64.0700    33.9360    26.1280 O.co2        1 5GP300  -1.0000
     5 O5'         62.2030    34.7960    24.7700 O.3          1 5GP300   0.0000
     6 C5'         61.0700    34.1010    25.2520 C.3          1 5GP300   0.0000
     7 C4'         60.2350    33.6060    24.0810 C.3          1 5GP300   0.0000
     8 O4'         59.5260    34.7050    23.5030 O.3          1 5GP300   0.0000
     9 C3'         60.9900    32.9830    22.9280 C.3          1 5GP300   0.0000
    10 O3'         60.2210    31.9150    22.4110 O.3          1 5GP300   0.0000
    11 C2'         60.9410    34.0260    21.8580 C.3          1 5GP300   0.0000
    12 O2'         61.0690    33.4430    20.5930 O.3          1 5GP300   0.0000
    13 C1'         59.5540    34.6160    22.0940 C.3          1 5GP300   0.0000
    14 N9          59.3410    35.9270    21.4510 N.pl3        1 5GP300   0.0000
    15 C8          60.2470    36.9070    21.3200 C.2          1 5GP300   0.0000
    16 N7          59.6870    37.9360    20.6910 N.2          1 5GP300   1.0000
    17 C5          58.3880    37.5970    20.4190 C.2          1 5GP300   0.0000
    18 C6          57.3350    38.2450    19.8030 C.2          1 5GP300   0.0000
    19 O6          57.4130    39.4080    19.3020 O.2          1 5GP300   0.0000
    20 N1          56.1650    37.6070    19.7270 N.pl3        1 5GP300   0.0000
    21 C2          56.0020    36.3450    20.2170 C.2          1 5GP300   0.0000
    22 N2          54.8160    35.7430    20.1150 N.pl3        1 5GP300   0.0000
    23 N3          57.0010    35.6740    20.8130 N.2          1 5GP300   0.0000
    24 C4          58.1940    36.3110    20.9330 C.2          1 5GP300   0.0000
    25 H5'1        60.5189    34.7151    25.8170 H            1 5GP300   0.0000
    26 H5'2        61.3679    33.3202    25.8012 H            1 5GP300   0.0000
    27 H4'         59.5698    32.9418    24.4222 H            1 5GP300   0.0000
    28 H3'         61.9221    32.7134    23.1700 H            1 5GP300   0.0000
    29 H5          59.2492    32.1078    22.5466 H            1 5GP300   0.0000
    30 H2'         61.6495    34.7166    22.0034 H            1 5GP300   0.0000
    31 H7          61.5109    34.0895    19.9712 H            1 5GP300   0.0000
    32 H1'         58.8560    33.9709    21.7832 H            1 5GP300   0.0000
    33 H9          61.1925    36.8699    21.6436 H            1 5GP300   0.0000
    34 H10         55.3870    38.0670    19.2991 H            1 5GP300   0.0000
    35 H11         54.6926    34.8175    20.4732 H            1 5GP300   0.0000
    36 H12         54.0503    36.2172    19.6804 H            1 5GP300   0.0000
    37 H13         60.1331    38.8003    20.4587 H            1 5GP300   0.0000
@<TRIPOS>BOND
     1    1    2      ar
     2    1    3      ar
     3    1    4      ar
     4    1    5       1
     5    5    6       1
     6    6    7       1
     7    7    8       1
     8    7    9       1
     9    8   13       1
    10    9   10       1
    11    9   11       1
    12   11   12       1
    13   11   13       1
    14   13   14       1
    15   14   15       1
    16   14   24       1
    17   15   16       2
    18   16   17       1
    19   17   18       1
    20   17   24       2
    21   18   19       2
    22   18   20       1
    23   20   21       1
    24   21   22       1
    25   21   23       2
    26   23   24       1
    27   22   36       1
    28   22   35       1
    29    6   25       1
    30    6   26       1
    31    7   27       1
    32    9   28       1
    33   10   29       1
    34   11   30       1
    35   12   31       1
    36   13   32       1
    37   15   33       1
    38   20   34       1
    39   16   37       1
@<TRIPOS>SUBSTRUCTURE
     1 5GP300      1 GROUP             4 A     5GP     0 **** 5GP A 300
