@<TRIPOS>MOLECULE
4uj3_GNP_5_ligand
   45    47     1     0     0
SMALL
NO_CHARGES


@<TRIPOS>ATOM
     1 PG          -8.5630   -40.6100    -8.4090 P.3          1 GNP200   0.0000
     2 O1G         -8.6100   -41.9610    -7.7400 O.co2        1 GNP200   0.0000
     3 O2G         -7.7560   -40.8590    -9.6650 O.co2        1 GNP200  -1.0000
     4 O3G         -9.9090   -39.9330    -8.5930 O.co2        1 GNP200  -1.0000
     5 N3B         -7.7080   -39.6380    -7.4860 N.3          1 GNP200   0.0000
     6 PB          -7.5390   -38.0830    -7.7790 P.3          1 GNP200   0.0000
     7 O1B         -6.2880   -37.8330    -8.5410 O.co2        1 GNP200   0.0000
     8 O2B         -8.8090   -37.6040    -8.3670 O.co2        1 GNP200  -1.0000
     9 O3A         -7.3950   -37.3880    -6.4360 O.3          1 GNP200   0.0000
    10 PA          -8.4890   -36.4830    -5.8870 P.3          1 GNP200   0.0000
    11 O1A         -8.4910   -35.2070    -6.6480 O.co2        1 GNP200   0.0000
    12 O2A         -9.7460   -37.2550    -5.7460 O.co2        1 GNP200  -1.0000
    13 O5'         -8.0540   -36.1210    -4.4230 O.3          1 GNP200   0.0000
    14 C5'         -7.7790   -37.1900    -3.5540 C.3          1 GNP200   0.0000
    15 C4'         -7.5680   -36.6450    -2.1650 C.3          1 GNP200   0.0000
    16 O4'         -6.4840   -35.6920    -2.2360 O.3          1 GNP200   0.0000
    17 C3'         -8.7690   -35.8850    -1.6280 C.3          1 GNP200   0.0000
    18 O3'         -8.8550   -36.0630    -0.2240 O.3          1 GNP200   0.0000
    19 C2'         -8.4320   -34.4540    -2.0260 C.3          1 GNP200   0.0000
    20 O2'         -9.0890   -33.4760    -1.2440 O.3          1 GNP200   0.0000
    21 C1'         -6.9360   -34.4480    -1.7550 C.3          1 GNP200   0.0000
    22 N9          -6.2660   -33.3670    -2.4620 N.pl3        1 GNP200   0.0000
    23 C8          -6.3080   -33.1160    -3.8110 C.2          1 GNP200   0.0000
    24 N7          -5.6130   -32.0720    -4.1640 N.2          1 GNP200   0.0000
    25 C5          -5.0880   -31.6080    -2.9690 C.2          1 GNP200   0.0000
    26 C6          -4.2590   -30.4970    -2.7280 C.2          1 GNP200   0.0000
    27 O6          -3.8280   -29.6950    -3.5690 O.2          1 GNP200   0.0000
    28 N1          -3.9460   -30.3670    -1.3710 N.pl3        1 GNP200   0.0000
    29 C2          -4.3860   -31.2180    -0.3790 C.2          1 GNP200   0.0000
    30 N2          -3.9860   -30.9470     0.8780 N.pl3        1 GNP200   0.0000
    31 N3          -5.1680   -32.2690    -0.6050 N.2          1 GNP200   0.0000
    32 C4          -5.4780   -32.3930    -1.9130 C.2          1 GNP200   0.0000
    33 H3B         -8.1094   -39.7032    -6.5724 H            1 GNP200   0.0000
    34 H5'1        -6.9534   -37.6658    -3.8573 H            1 GNP200   0.0000
    35 H5'2        -8.5493   -37.8277    -3.5514 H            1 GNP200   0.0000
    36 H4'         -7.3280   -37.3881    -1.5403 H            1 GNP200   0.0000
    37 H3'         -9.6099   -36.1888    -2.0759 H            1 GNP200   0.0000
    38 H6          -9.6459   -35.5622     0.1277 H            1 GNP200   0.0000
    39 H2'         -8.6139   -34.3073    -2.9983 H            1 GNP200   0.0000
    40 H8          -9.9651   -33.2445    -1.6669 H            1 GNP200   0.0000
    41 H1'         -6.7642   -34.3755    -0.7725 H            1 GNP200   0.0000
    42 H10         -6.8213   -33.6789    -4.4588 H            1 GNP200   0.0000
    43 H11         -3.3612   -29.6021    -1.1007 H            1 GNP200   0.0000
    44 H12         -4.2778   -31.5341     1.6331 H            1 GNP200   0.0000
    45 H13         -3.3971   -30.1587     1.0563 H            1 GNP200   0.0000
@<TRIPOS>BOND
     1    1    2      ar
     2    1    3      ar
     3    1    4      ar
     4    1    5       1
     5    5    6       1
     6    6    7      ar
     7    6    8      ar
     8    6    9       1
     9    9   10       1
    10   10   11      ar
    11   10   12      ar
    12   10   13       1
    13   13   14       1
    14   14   15       1
    15   15   16       1
    16   15   17       1
    17   16   21       1
    18   17   18       1
    19   17   19       1
    20   19   20       1
    21   19   21       1
    22   21   22       1
    23   22   23       1
    24   22   32       1
    25   23   24       2
    26   24   25       1
    27   25   26       1
    28   25   32       2
    29   26   27       2
    30   26   28       1
    31   28   29       1
    32   29   30       1
    33   29   31       2
    34   31   32       1
    35   30   45       1
    36   30   44       1
    37    5   33       1
    38   28   43       1
    39   23   42       1
    40   14   34       1
    41   14   35       1
    42   15   36       1
    43   17   37       1
    44   18   38       1
    45   19   39       1
    46   20   40       1
    47   21   41       1
@<TRIPOS>SUBSTRUCTURE
     1 GNP200      1 GROUP             4 M     GNP     0 **** GNP M 200
