@<TRIPOS>MOLECULE
2ji6_ADP_5_ligand
   39    41     1     0     0
SMALL
NO_CHARGES


@<TRIPOS>ATOM
     1 PB          71.1160   -21.4570   -10.7730 P.3          1 ADP1568   0.0000
     2 O1B         72.3600   -21.9050   -11.5080 O.co2        1 ADP1568   0.0000
     3 O2B         71.0650   -19.9840   -10.4470 O.co2        1 ADP1568  -1.0000
     4 O3B         70.7290   -22.3360    -9.6160 O.co2        1 ADP1568  -1.0000
     5 PA          69.5410   -20.7100   -13.0800 P.3          1 ADP1568   0.0000
     6 O1A         70.8140   -20.0960   -13.6510 O.co2        1 ADP1568   0.0000
     7 O2A         68.4030   -19.7980   -12.6610 O.co2        1 ADP1568  -1.0000
     8 O3A         69.9360   -21.7180   -11.8590 O.3          1 ADP1568   0.0000
     9 O5'         69.0110   -21.7790   -14.1610 O.3          1 ADP1568   0.0000
    10 C5'         67.6820   -22.2910   -14.2550 C.3          1 ADP1568   0.0000
    11 C4'         67.5470   -22.9280   -15.6380 C.3          1 ADP1568   0.0000
    12 O4'         66.6770   -24.0620   -15.6100 O.3          1 ADP1568   0.0000
    13 C3'         66.9900   -21.9600   -16.6860 C.3          1 ADP1568   0.0000
    14 O3'         67.9290   -21.8510   -17.7620 O.3          1 ADP1568   0.0000
    15 C2'         65.6630   -22.5490   -17.1430 C.3          1 ADP1568   0.0000
    16 O2'         65.4340   -22.4150   -18.5560 O.3          1 ADP1568   0.0000
    17 C1'         65.7950   -24.0110   -16.7370 C.3          1 ADP1568   0.0000
    18 N9          64.5410   -24.6820   -16.3350 N.pl3        1 ADP1568   0.0000
    19 C8          63.5780   -24.2370   -15.5090 C.2          1 ADP1568   0.0000
    20 N7          62.6120   -25.1830   -15.3680 N.2          1 ADP1568   0.0000
    21 C5          62.9750   -26.2520   -16.1000 C.ar         1 ADP1568   0.0000
    22 C6          62.4220   -27.5950   -16.4060 C.ar         1 ADP1568   0.0000
    23 N6          61.2450   -28.0010   -15.8740 N.pl3        1 ADP1568   0.0000
    24 N1          63.1370   -28.3890   -17.2330 N.ar         1 ADP1568   0.0000
    25 C2          64.3120   -28.0080   -17.7770 C.ar         1 ADP1568   0.0000
    26 N3          64.8710   -26.8060   -17.5430 N.ar         1 ADP1568   0.0000
    27 C4          64.2570   -25.9160   -16.7280 C.ar         1 ADP1568   0.0000
    28 H5'1        67.0197   -21.5488   -14.1523 H            1 ADP1568   0.0000
    29 H5'2        67.5269   -22.9769   -13.5441 H            1 ADP1568   0.0000
    30 H4'         68.4521   -23.2309   -15.9365 H            1 ADP1568   0.0000
    31 H3'         66.8395   -21.0616   -16.2734 H            1 ADP1568   0.0000
    32 H5          68.0697   -22.7512   -18.1741 H            1 ADP1568   0.0000
    33 H2'         64.9124   -22.1241   -16.6371 H            1 ADP1568   0.0000
    34 H7          66.1597   -22.8861   -19.0574 H            1 ADP1568   0.0000
    35 H1'         66.2064   -24.5205   -17.4928 H            1 ADP1568   0.0000
    36 H9          63.5731   -23.3416   -15.0637 H            1 ADP1568   0.0000
    37 H10         60.8855   -28.9089   -16.0897 H            1 ADP1568   0.0000
    38 H11         60.7352   -27.3930   -15.2654 H            1 ADP1568   0.0000
    39 H12         64.7885   -28.6471   -18.3807 H            1 ADP1568   0.0000
@<TRIPOS>BOND
     1    1    2      ar
     2    1    3      ar
     3    1    4      ar
     4    1    8       1
     5    5    6      ar
     6    5    7      ar
     7    5    8       1
     8    5    9       1
     9    9   10       1
    10   10   11       1
    11   11   12       1
    12   11   13       1
    13   12   17       1
    14   13   14       1
    15   13   15       1
    16   15   16       1
    17   15   17       1
    18   17   18       1
    19   18   19       1
    20   18   27       1
    21   19   20       2
    22   20   21       1
    23   21   22      ar
    24   21   27      ar
    25   22   23       1
    26   22   24      ar
    27   24   25      ar
    28   25   26      ar
    29   26   27      ar
    30   25   39       1
    31   23   38       1
    32   23   37       1
    33   10   28       1
    34   10   29       1
    35   11   30       1
    36   13   31       1
    37   14   32       1
    38   15   33       1
    39   16   34       1
    40   17   35       1
    41   19   36       1
@<TRIPOS>SUBSTRUCTURE
     1 ADP1568     1 GROUP             4 A     ADP     0 **** ADP A1568
