@<TRIPOS>MOLECULE
3jrx_S1A_1_ligand
   81    83     1     0     0
SMALL
NO_CHARGES


@<TRIPOS>ATOM
     1 C1         -44.2290    25.2330   -16.0730 C.2          1 S1A1000   0.0000
     2 C2         -43.0360    25.4650   -17.0210 C.3          1 S1A1000   0.0000
     3 C3         -43.0030    24.3820   -18.1640 C.3          1 S1A1000   0.0000
     4 C4         -41.7590    24.5840   -19.1540 C.3          1 S1A1000   0.0000
     5 C5         -41.9300    23.7530   -20.5000 C.3          1 S1A1000   0.0000
     6 C6         -43.3720    23.8570   -21.0900 C.3          1 S1A1000   0.0000
     7 C7         -44.4530    23.5540   -19.9770 C.3          1 S1A1000   0.0000
     8 C8         -45.9070    23.7030   -20.5330 C.3          1 S1A1000   0.0000
     9 C9         -46.9490    23.3900   -19.3810 C.2          1 S1A1000   0.0000
    10 C10        -47.2590    22.0820   -18.9900 C.2          1 S1A1000   0.0000
    11 C11        -48.2920    21.7990   -17.8550 C.3          1 S1A1000   0.0000
    12 C12        -47.9140    20.5050   -17.0590 C.3          1 S1A1000   0.0000
    13 C13        -46.5260    20.6350   -16.3780 C.3          1 S1A1000   0.0000
    14 C14        -46.4040    21.7570   -15.3570 C.3          1 S1A1000   0.0000
    15 C15        -45.1070    21.6290   -14.6050 C.3          1 S1A1000   0.0000
    16 C16        -44.9050    22.6990   -13.5500 C.3          1 S1A1000   0.0000
    17 C17        -44.9800    24.1660   -14.0080 C.3          1 S1A1000   0.0000
    18 C19        -41.7310    25.4840   -16.2010 C.3          1 S1A1000   0.0000
    19 C20        -40.1980    26.3900   -19.4450 C.3          1 S1A1000   0.0000
    20 C21        -43.5590    25.2460   -21.7550 C.3          1 S1A1000   0.0000
    21 C22        -46.1710    22.7650   -21.7270 C.3          1 S1A1000   0.0000
    22 C23        -50.5980    22.3730   -17.7070 C.3          1 S1A1000   0.0000
    23 C24        -47.9660    18.1030   -17.2720 C.3          1 S1A1000   0.0000
    24 C25        -44.6950    24.9940   -12.7240 C.ar         1 S1A1000   0.0000
    25 C26        -43.3360    25.0970   -12.2360 C.ar         1 S1A1000   0.0000
    26 C27        -43.0540    25.8000   -11.0500 C.ar         1 S1A1000   0.0000
    27 C28        -44.1070    26.4110   -10.3270 C.ar         1 S1A1000   0.0000
    28 C29        -45.4540    26.3180   -10.7970 C.ar         1 S1A1000   0.0000
    29 C30        -45.7440    25.6080   -12.0010 C.ar         1 S1A1000   0.0000
    30 O1         -45.3970    25.6870   -16.1590 O.2          1 S1A1000   0.0000
    31 O3         -42.8940    23.0670   -17.5630 O.3          1 S1A1000   0.0000
    32 O4         -41.6040    25.9910   -19.4730 O.3          1 S1A1000   0.0000
    33 O5         -41.6270    22.3800   -20.2420 O.3          1 S1A1000   0.0000
    34 O7         -44.2830    24.4680   -18.8540 O.3          1 S1A1000   0.0000
    35 O11        -49.5960    21.6190   -18.4420 O.3          1 S1A1000   0.0000
    36 O12        -47.9080    19.3820   -17.9830 O.3          1 S1A1000   0.0000
    37 O18        -43.9250    24.4360   -15.0020 O.3          1 S1A1000   0.0000
    38 H1         -43.1480    26.3627   -17.4471 H            1 S1A1000   0.0000
    39 H2         -40.9303    24.2704   -18.6905 H            1 S1A1000   0.0000
    40 H3         -41.2815    24.1023   -21.1764 H            1 S1A1000   0.0000
    41 H4         -43.4625    23.1613   -21.8026 H            1 S1A1000   0.0000
    42 H5         -44.3268    22.6168   -19.6518 H            1 S1A1000   0.0000
    43 H6         -46.0383    24.6475   -20.8341 H            1 S1A1000   0.0000
    44 H7         -47.4004    24.1526   -18.9176 H            1 S1A1000   0.0000
    45 H8         -46.8098    21.3142   -19.4468 H            1 S1A1000   0.0000
    46 H9         -48.3162    22.5777   -17.2281 H            1 S1A1000   0.0000
    47 H10        -48.6064    20.3428   -16.3559 H            1 S1A1000   0.0000
    48 H11        -45.8448    20.7927   -17.0929 H            1 S1A1000   0.0000
    49 H12        -46.3279    19.7719   -15.9134 H            1 S1A1000   0.0000
    50 H13        -47.1670    21.7032   -14.7129 H            1 S1A1000   0.0000
    51 H14        -46.4277    22.6383   -15.8289 H            1 S1A1000   0.0000
    52 H15        -44.3547    21.6869   -15.2613 H            1 S1A1000   0.0000
    53 H16        -45.0895    20.7357   -14.1558 H            1 S1A1000   0.0000
    54 H17        -44.0011    22.5562   -13.1468 H            1 S1A1000   0.0000
    55 H18        -45.6069    22.5668   -12.8501 H            1 S1A1000   0.0000
    56 H19        -45.8840    24.3796   -14.3784 H            1 S1A1000   0.0000
    57 H20        -40.9548    25.6344   -16.8133 H            1 S1A1000   0.0000
    58 H21        -41.7716    26.2215   -15.5269 H            1 S1A1000   0.0000
    59 H22        -41.6200    24.6084   -15.7308 H            1 S1A1000   0.0000
    60 H23        -40.1228    27.3619   -19.6681 H            1 S1A1000   0.0000
    61 H24        -39.8235    26.2276   -18.5321 H            1 S1A1000   0.0000
    62 H25        -39.6858    25.8534   -20.1156 H            1 S1A1000   0.0000
    63 H26        -44.4824    25.3130   -22.1330 H            1 S1A1000   0.0000
    64 H27        -43.4258    25.9635   -21.0713 H            1 S1A1000   0.0000
    65 H28        -42.8894    25.3568   -22.4894 H            1 S1A1000   0.0000
    66 H29        -47.1088    22.8925   -22.0501 H            1 S1A1000   0.0000
    67 H30        -45.5320    22.9782   -22.4660 H            1 S1A1000   0.0000
    68 H31        -46.0436    21.8157   -21.4397 H            1 S1A1000   0.0000
    69 H32        -51.4943    22.2356   -18.1287 H            1 S1A1000   0.0000
    70 H33        -50.6238    22.0568   -16.7586 H            1 S1A1000   0.0000
    71 H34        -50.3653    23.3453   -17.7280 H            1 S1A1000   0.0000
    72 H35        -47.9603    17.3532   -17.9337 H            1 S1A1000   0.0000
    73 H36        -47.1729    18.0209   -16.6684 H            1 S1A1000   0.0000
    74 H37        -48.8043    18.0615   -16.7284 H            1 S1A1000   0.0000
    75 H38        -42.5918    24.6652   -12.7457 H            1 S1A1000   0.0000
    76 H39        -42.1129    25.8678   -10.7189 H            1 S1A1000   0.0000
    77 H40        -43.9076    26.9099    -9.4836 H            1 S1A1000   0.0000
    78 H41        -46.1938    26.7508   -10.2818 H            1 S1A1000   0.0000
    79 H42        -46.6855    25.5450   -12.3320 H            1 S1A1000   0.0000
    80 H43        -42.4018    22.4566   -18.1836 H            1 S1A1000   0.0000
    81 H44        -40.6850    22.3022   -19.9154 H            1 S1A1000   0.0000
@<TRIPOS>BOND
     1    1    2       1
     2    1   30       2
     3    1   37       1
     4    2    3       1
     5    2   18       1
     6    3    4       1
     7    3   31       1
     8    3   34       1
     9    4    5       1
    10    4   32       1
    11    5    6       1
    12    5   33       1
    13    6    7       1
    14    6   20       1
    15    7    8       1
    16    7   34       1
    17    8    9       1
    18    8   21       1
    19    9   10       2
    20   10   11       1
    21   11   12       1
    22   11   35       1
    23   12   13       1
    24   12   36       1
    25   13   14       1
    26   14   15       1
    27   15   16       1
    28   16   17       1
    29   17   24       1
    30   17   37       1
    31   19   32       1
    32   22   35       1
    33   23   36       1
    34   24   25      ar
    35   24   29      ar
    36   25   26      ar
    37   26   27      ar
    38   27   28      ar
    39   28   29      ar
    40    2   38       1
    41    4   39       1
    42    5   40       1
    43    6   41       1
    44    7   42       1
    45    8   43       1
    46    9   44       1
    47   10   45       1
    48   11   46       1
    49   12   47       1
    50   13   48       1
    51   13   49       1
    52   14   50       1
    53   14   51       1
    54   15   52       1
    55   15   53       1
    56   16   54       1
    57   16   55       1
    58   17   56       1
    59   18   57       1
    60   18   58       1
    61   18   59       1
    62   19   60       1
    63   19   61       1
    64   19   62       1
    65   20   63       1
    66   20   64       1
    67   20   65       1
    68   21   66       1
    69   21   67       1
    70   21   68       1
    71   22   69       1
    72   22   70       1
    73   22   71       1
    74   23   72       1
    75   23   73       1
    76   23   74       1
    77   25   75       1
    78   26   76       1
    79   27   77       1
    80   28   78       1
    81   29   79       1
    82   31   80       1
    83   33   81       1
@<TRIPOS>SUBSTRUCTURE
     1 S1A1000     1 GROUP             4 A     S1A     0 **** S1A A1000
