@<TRIPOS>MOLECULE
4cvl_ACP_1_ligand
   45    47     1     0     0
SMALL
NO_CHARGES


@<TRIPOS>ATOM
     1 PG          18.5710   -28.4530   -13.9460 P.3          1 ACP1452   0.0000
     2 O1G         18.3330   -26.8540   -13.9270 O.co2        1 ACP1452   0.0000
     3 O2G         19.5860   -28.8740   -15.1090 O.co2        1 ACP1452  -1.0000
     4 O3G         17.3000   -29.1880   -14.1800 O.co2        1 ACP1452  -1.0000
     5 PB          18.2080   -29.5580   -11.1940 P.3          1 ACP1452   0.0000
     6 O1B         17.8720   -28.4970   -10.2220 O.co2        1 ACP1452   0.0000
     7 O2B         16.8950   -30.2080   -11.8590 O.co2        1 ACP1452  -1.0000
     8 C3B         19.3810   -28.9220   -12.4040 C.3          1 ACP1452   0.0000
     9 PA          18.5800   -32.1430   -10.3540 P.3          1 ACP1452   0.0000
    10 O1A         18.4070   -32.5980   -11.7930 O.co2        1 ACP1452   0.0000
    11 O2A         17.4620   -32.3030    -9.3370 O.co2        1 ACP1452  -1.0000
    12 O3A         19.0390   -30.6210   -10.3710 O.3          1 ACP1452   0.0000
    13 O5'         19.9760   -32.7530    -9.8120 O.3          1 ACP1452   0.0000
    14 C5'         21.0460   -32.8930   -10.7440 C.3          1 ACP1452   0.0000
    15 C4'         22.4030   -32.8020   -10.0720 C.3          1 ACP1452   0.0000
    16 O4'         22.4900   -31.6640    -9.2130 O.3          1 ACP1452   0.0000
    17 C3'         22.7130   -34.0630    -9.2710 C.3          1 ACP1452   0.0000
    18 O3'         23.7370   -34.8350    -9.9080 O.3          1 ACP1452   0.0000
    19 C2'         23.2180   -33.5880    -7.9350 C.3          1 ACP1452   0.0000
    20 O2'         24.5980   -33.8960    -7.7160 O.3          1 ACP1452   0.0000
    21 C1'         23.0500   -32.0780    -7.9560 C.3          1 ACP1452   0.0000
    22 N9          22.1540   -31.7450    -6.8300 N.pl3        1 ACP1452   0.0000
    23 C8          20.8940   -32.1980    -6.6640 C.2          1 ACP1452   0.0000
    24 N7          20.3750   -31.6930    -5.5220 N.2          1 ACP1452   0.0000
    25 C5          21.3170   -30.9140    -4.9530 C.ar         1 ACP1452   0.0000
    26 C6          21.4180   -30.0720    -3.7420 C.ar         1 ACP1452   0.0000
    27 N6          20.3560   -30.0000    -2.9100 N.pl3        1 ACP1452   0.0000
    28 N1          22.5780   -29.4110    -3.4900 N.ar         1 ACP1452   0.0000
    29 C2          23.6200   -29.5030    -4.3340 C.ar         1 ACP1452   0.0000
    30 N3          23.5850   -30.2470    -5.4670 N.ar         1 ACP1452   0.0000
    31 C4          22.4910   -30.9630    -5.8140 C.ar         1 ACP1452   0.0000
    32 H3B1        19.8366   -28.1184   -12.0210 H            1 ACP1452   0.0000
    33 H3B2        20.0605   -29.6295   -12.5982 H            1 ACP1452   0.0000
    34 H5'1        20.9753   -32.1667   -11.4277 H            1 ACP1452   0.0000
    35 H5'2        20.9678   -33.7828   -11.1936 H            1 ACP1452   0.0000
    36 H4'         23.0977   -32.7076   -10.7851 H            1 ACP1452   0.0000
    37 H3'         21.8857   -34.6125    -9.1542 H            1 ACP1452   0.0000
    38 H7          24.5178   -34.9274    -9.2901 H            1 ACP1452   0.0000
    39 H2'         22.6621   -33.9812    -7.2027 H            1 ACP1452   0.0000
    40 H9          24.6855   -34.4770    -6.9068 H            1 ACP1452   0.0000
    41 H1'         23.9380   -31.6382    -7.8215 H            1 ACP1452   0.0000
    42 H11         20.4163   -32.8139    -7.2905 H            1 ACP1452   0.0000
    43 H12         20.4040   -29.4361    -2.0856 H            1 ACP1452   0.0000
    44 H13         19.5219   -30.5106    -3.1186 H            1 ACP1452   0.0000
    45 H14         24.4572   -29.0011    -4.1170 H            1 ACP1452   0.0000
@<TRIPOS>BOND
     1    1    2      ar
     2    1    3      ar
     3    1    4      ar
     4    1    8       1
     5    5    6      ar
     6    5    7      ar
     7    5    8       1
     8    5   12       1
     9    9   10      ar
    10    9   11      ar
    11    9   12       1
    12    9   13       1
    13   13   14       1
    14   14   15       1
    15   15   16       1
    16   15   17       1
    17   16   21       1
    18   17   18       1
    19   17   19       1
    20   19   20       1
    21   19   21       1
    22   21   22       1
    23   22   23       1
    24   22   31       1
    25   23   24       2
    26   24   25       1
    27   25   26      ar
    28   25   31      ar
    29   26   27       1
    30   26   28      ar
    31   28   29      ar
    32   29   30      ar
    33   30   31      ar
    34   29   45       1
    35   27   44       1
    36   27   43       1
    37    8   32       1
    38    8   33       1
    39   23   42       1
    40   14   34       1
    41   14   35       1
    42   15   36       1
    43   17   37       1
    44   18   38       1
    45   19   39       1
    46   20   40       1
    47   21   41       1
@<TRIPOS>SUBSTRUCTURE
     1 ACP1452     1 GROUP             4 A     ACP     0 **** ACP A1452
