@<TRIPOS>MOLECULE
4an4_DUD_2_ligand
   35    36     1     0     0
SMALL
NO_CHARGES


@<TRIPOS>ATOM
     1 N1          -3.2020    63.4280   -60.5640 N.pl3        1 DUD401   0.0000
     2 C2          -3.8080    62.1820   -60.8350 C.2          1 DUD401   0.0000
     3 N3          -4.7520    61.7020   -60.0210 N.pl3        1 DUD401   0.0000
     4 C4          -5.1310    62.3800   -58.9250 C.2          1 DUD401   0.0000
     5 C5          -4.5400    63.6140   -58.6230 C.2          1 DUD401   0.0000
     6 C6          -3.5550    64.1240   -59.4690 C.2          1 DUD401   0.0000
     7 O2          -3.4810    61.5210   -61.8440 O.2          1 DUD401   0.0000
     8 O4          -6.0190    61.8930   -58.1900 O.2          1 DUD401   0.0000
     9 C1'         -2.1470    63.8620   -61.4850 C.3          1 DUD401   0.0000
    10 C2'         -2.6460    64.2370   -62.8800 C.3          1 DUD401   0.0000
    11 C3'         -1.7090    65.3430   -63.3290 C.3          1 DUD401   0.0000
    12 C4'         -1.0060    65.8260   -62.0600 C.3          1 DUD401   0.0000
    13 O4'         -1.3990    64.9760   -60.9830 O.3          1 DUD401   0.0000
    14 O3'         -0.7790    64.8390   -64.2970 O.3          1 DUD401   0.0000
    15 C5'         -1.3920    67.2520   -61.7220 C.3          1 DUD401   0.0000
    16 O5'         -0.5450    68.1430   -62.4450 O.3          1 DUD401   0.0000
    17 PA          -1.1680    69.4470   -63.1610 P.3          1 DUD401   0.0000
    18 O1A         -0.4990    69.6450   -64.5000 O.co2        1 DUD401   0.0000
    19 O2A         -2.6770    69.3810   -63.1270 O.co2        1 DUD401  -1.0000
    20 O3A         -0.6070    70.6620   -62.2540 O.3          1 DUD401   0.0000
    21 PB          -0.5870    70.8130   -60.6400 P.3          1 DUD401   0.0000
    22 O1B         -1.6520    71.8600   -60.4230 O.co2        1 DUD401   0.0000
    23 O2B          0.8240    71.2880   -60.3890 O.co2        1 DUD401  -1.0000
    24 O3B         -0.9110    69.4940   -59.9830 O.co2        1 DUD401  -1.0000
    25 H1          -5.1832    60.8245   -60.2307 H            1 DUD401   0.0000
    26 H2          -4.8212    64.1236   -57.8098 H            1 DUD401   0.0000
    27 H3          -3.1158    64.9985   -59.2632 H            1 DUD401   0.0000
    28 H1'         -1.5103    63.0982   -61.5909 H            1 DUD401   0.0000
    29 H2'1        -3.5896    64.5659   -62.8421 H            1 DUD401   0.0000
    30 H2'2        -2.5908    63.4532   -63.4985 H            1 DUD401   0.0000
    31 H3'         -2.2380    66.0922   -63.7276 H            1 DUD401   0.0000
    32 H4'         -0.0155    65.7693   -62.1853 H            1 DUD401   0.0000
    33 H9          -0.8831    65.3441   -65.1538 H            1 DUD401   0.0000
    34 H5'1        -1.2814    67.4061   -60.7402 H            1 DUD401   0.0000
    35 H5'2        -2.3451    67.4118   -61.9792 H            1 DUD401   0.0000
@<TRIPOS>BOND
     1    1    2       1
     2    1    6       1
     3    1    9       1
     4    2    3       1
     5    2    7       2
     6    3    4       1
     7    4    5       1
     8    4    8       2
     9    5    6       2
    10    9   10       1
    11    9   13       1
    12   10   11       1
    13   11   12       1
    14   11   14       1
    15   12   13       1
    16   12   15       1
    17   15   16       1
    18   16   17       1
    19   17   18      ar
    20   17   19      ar
    21   17   20       1
    22   20   21       1
    23   21   22      ar
    24   21   23      ar
    25   21   24      ar
    26    3   25       1
    27    5   26       1
    28    6   27       1
    29    9   28       1
    30   10   29       1
    31   10   30       1
    32   11   31       1
    33   12   32       1
    34   14   33       1
    35   15   34       1
    36   15   35       1
@<TRIPOS>SUBSTRUCTURE
     1 DUD401      1 GROUP             4 D     DUD     0 **** DUD D 401
