@<TRIPOS>MOLECULE
3vo2_FAD_1_ligand
   84    89     1     0     0
SMALL
NO_CHARGES


@<TRIPOS>ATOM
     1 PA          39.4400    25.6410    -9.4770 P.3          1 FAD401   0.0000
     2 O1A         40.3880    26.5420   -10.1950 O.co2        1 FAD401   0.0000
     3 O2A         38.5020    24.8380   -10.3000 O.co2        1 FAD401  -1.0000
     4 O5B         40.2790    24.6950    -8.4770 O.3          1 FAD401   0.0000
     5 C5B         39.6840    23.6120    -7.8030 C.3          1 FAD401   0.0000
     6 C4B         40.3230    22.3380    -8.3400 C.3          1 FAD401   0.0000
     7 O4B         41.6840    22.3260    -7.9680 O.3          1 FAD401   0.0000
     8 C3B         39.7360    21.0430    -7.7900 C.3          1 FAD401   0.0000
     9 O3B         38.7100    20.5490    -8.6130 O.3          1 FAD401   0.0000
    10 C2B         40.9100    20.0930    -7.8030 C.3          1 FAD401   0.0000
    11 O2B         40.9960    19.4440    -9.0540 O.3          1 FAD401   0.0000
    12 C1B         42.1110    21.0060    -7.6530 C.3          1 FAD401   0.0000
    13 N9A         42.6440    20.9170    -6.2750 N.pl3        1 FAD401   0.0000
    14 C8A         43.7770    20.2250    -5.9190 C.2          1 FAD401   0.0000
    15 N7A         43.9720    20.3570    -4.5850 N.2          1 FAD401   0.0000
    16 C5A         42.9800    21.1230    -4.0790 C.ar         1 FAD401   0.0000
    17 C6A         42.7040    21.5650    -2.7870 C.ar         1 FAD401   0.0000
    18 N6A         43.5740    21.3360    -1.8070 N.pl3        1 FAD401   0.0000
    19 N1A         41.5960    22.3590    -2.5550 N.ar         1 FAD401   0.0000
    20 C2A         40.7650    22.7100    -3.6060 C.ar         1 FAD401   0.0000
    21 N3A         41.0450    22.2650    -4.8860 N.ar         1 FAD401   0.0000
    22 C4A         42.1350    21.4850    -5.1270 C.ar         1 FAD401   0.0000
    23 N1          30.8740    27.2930    -4.7030 N.2          1 FAD401   0.0000
    24 C2          30.5810    28.4380    -4.0040 C.2          1 FAD401   0.0000
    25 O2          31.4640    29.1880    -3.5870 O.2          1 FAD401   0.0000
    26 N3          29.2560    28.7530    -3.7740 N.pl3        1 FAD401   0.0000
    27 C4          28.2240    27.9550    -4.2100 C.2          1 FAD401   0.0000
    28 O4          27.0350    28.2630    -3.9570 O.2          1 FAD401   0.0000
    29 C4X         28.5170    26.7840    -4.9130 C.2          1 FAD401   0.0000
    30 N5          27.5020    25.9690    -5.3800 N.2          1 FAD401   0.0000
    31 C5X         27.8420    24.8260    -6.0990 C.ar         1 FAD401   0.0000
    32 C6          26.8280    23.9980    -6.5700 C.ar         1 FAD401   0.0000
    33 C7          27.1390    22.8460    -7.3040 C.ar         1 FAD401   0.0000
    34 C7M         26.0090    21.9810    -7.7890 C.3          1 FAD401   0.0000
    35 C8          28.4850    22.5310    -7.5450 C.ar         1 FAD401   0.0000
    36 C8M         28.8860    21.3050    -8.3270 C.3          1 FAD401   0.0000
    37 C9          29.4960    23.3670    -7.0780 C.ar         1 FAD401   0.0000
    38 C9A         29.1900    24.5220    -6.3340 C.ar         1 FAD401   0.0000
    39 N10         30.1930    25.3510    -5.8730 N.pl3        1 FAD401   0.0000
    40 C10         29.8600    26.4900    -5.1590 C.2          1 FAD401   0.0000
    41 C1'         31.6420    25.0490    -6.1480 C.3          1 FAD401   0.0000
    42 C2'         32.0830    25.7620    -7.4440 C.3          1 FAD401   0.0000
    43 O2'         31.4700    25.2100    -8.5850 O.3          1 FAD401   0.0000
    44 C3'         33.5960    25.7060    -7.6680 C.3          1 FAD401   0.0000
    45 O3'         34.0250    24.3500    -7.6580 O.3          1 FAD401   0.0000
    46 C4'         34.3990    26.4990    -6.6450 C.3          1 FAD401   0.0000
    47 O4'         34.0380    27.8680    -6.7040 O.3          1 FAD401   0.0000
    48 C5'         35.8950    26.3910    -6.9330 C.3          1 FAD401   0.0000
    49 O5'         36.1380    26.6830    -8.3010 O.3          1 FAD401   0.0000
    50 P           37.3780    27.5480    -8.7640 P.3          1 FAD401   0.0000
    51 O1P         37.2780    27.7590   -10.2540 O.co2        1 FAD401   0.0000
    52 O2P         37.5540    28.7830    -7.9480 O.co2        1 FAD401  -1.0000
    53 O3P         38.6330    26.5590    -8.4030 O.3          1 FAD401   0.0000
    54 H5B1        38.6992    23.6003    -7.9765 H            1 FAD401   0.0000
    55 H5B2        39.8483    23.6890    -6.8196 H            1 FAD401   0.0000
    56 H4B         40.2551    22.3318    -9.3377 H            1 FAD401   0.0000
    57 H3B         39.4033    21.1771    -6.8565 H            1 FAD401   0.0000
    58 H5          38.6814    19.5515    -8.5477 H            1 FAD401   0.0000
    59 H2B         40.8556    19.4344    -7.0525 H            1 FAD401   0.0000
    60 H7          41.7758    18.8180    -9.0518 H            1 FAD401   0.0000
    61 H1B         42.8206    20.7260    -8.2996 H            1 FAD401   0.0000
    62 H8A         44.3624    19.7080    -6.5435 H            1 FAD401   0.0000
    63 H6A1        43.3769    21.6528    -0.8792 H            1 FAD401   0.0000
    64 H6A2        44.4251    20.8470    -1.9981 H            1 FAD401   0.0000
    65 H2A         39.9635    23.2844    -3.4400 H            1 FAD401   0.0000
    66 H13         29.0393    29.5908    -3.2728 H            1 FAD401   0.0000
    67 H14         25.8724    24.2263    -6.3837 H            1 FAD401   0.0000
    68 H7M1        26.3791    21.2011    -8.2937 H            1 FAD401   0.0000
    69 H7M2        25.4817    21.6514    -7.0059 H            1 FAD401   0.0000
    70 H7M3        25.4146    22.5152    -8.3901 H            1 FAD401   0.0000
    71 H8M1        29.8831    21.2597    -8.3876 H            1 FAD401   0.0000
    72 H8M2        28.5426    20.4876    -7.8645 H            1 FAD401   0.0000
    73 H8M3        28.4981    21.3550    -9.2473 H            1 FAD401   0.0000
    74 H21         30.4510    23.1441    -7.2736 H            1 FAD401   0.0000
    75 H1'1        31.7619    24.0619    -6.2540 H            1 FAD401   0.0000
    76 H1'2        32.2001    25.3724    -5.3839 H            1 FAD401   0.0000
    77 H2'         31.8128    26.7226    -7.3788 H            1 FAD401   0.0000
    78 H25         30.6094    25.6866    -8.7645 H            1 FAD401   0.0000
    79 H3'         33.7888    26.0846    -8.5732 H            1 FAD401   0.0000
    80 H27         34.8247    24.2490    -8.2499 H            1 FAD401   0.0000
    81 H4'         34.2109    26.1452    -5.7288 H            1 FAD401   0.0000
    82 H29         33.6786    28.1565    -5.8165 H            1 FAD401   0.0000
    83 H5'1        36.2070    25.4628    -6.7301 H            1 FAD401   0.0000
    84 H5'2        36.3923    27.0425    -6.3600 H            1 FAD401   0.0000
@<TRIPOS>BOND
     1    1    2      ar
     2    1    3      ar
     3    1    4       1
     4    1   53       1
     5    4    5       1
     6    5    6       1
     7    6    7       1
     8    6    8       1
     9    7   12       1
    10    8    9       1
    11    8   10       1
    12   10   11       1
    13   10   12       1
    14   12   13       1
    15   13   14       1
    16   13   22       1
    17   14   15       2
    18   15   16       1
    19   16   17      ar
    20   16   22      ar
    21   17   18       1
    22   17   19      ar
    23   19   20      ar
    24   20   21      ar
    25   21   22      ar
    26   23   24       1
    27   23   40       2
    28   24   25       2
    29   24   26       1
    30   26   27       1
    31   27   28       2
    32   27   29       1
    33   29   30       2
    34   29   40       1
    35   30   31       1
    36   31   32      ar
    37   31   38      ar
    38   32   33      ar
    39   33   34       1
    40   33   35      ar
    41   35   36       1
    42   35   37      ar
    43   37   38      ar
    44   38   39       1
    45   39   40       1
    46   39   41       1
    47   41   42       1
    48   42   43       1
    49   42   44       1
    50   44   45       1
    51   44   46       1
    52   46   47       1
    53   46   48       1
    54   48   49       1
    55   49   50       1
    56   50   51      ar
    57   50   52      ar
    58   50   53       1
    59   48   84       1
    60    5   54       1
    61    5   55       1
    62    6   56       1
    63    8   57       1
    64    9   58       1
    65   10   59       1
    66   11   60       1
    67   12   61       1
    68   14   62       1
    69   18   63       1
    70   18   64       1
    71   20   65       1
    72   26   66       1
    73   32   67       1
    74   34   68       1
    75   34   69       1
    76   34   70       1
    77   36   71       1
    78   36   72       1
    79   36   73       1
    80   37   74       1
    81   41   75       1
    82   41   76       1
    83   42   77       1
    84   43   78       1
    85   44   79       1
    86   45   80       1
    87   46   81       1
    88   47   82       1
    89   48   83       1
@<TRIPOS>SUBSTRUCTURE
     1 FAD401      1 GROUP             4 A     FAD     0 **** FAD A 401
