@<TRIPOS>MOLECULE
3mhp_FAD_1_ligand
   84    89     1     0     0
SMALL
NO_CHARGES


@<TRIPOS>ATOM
     1 PA          -6.6600     4.9970    31.0560 P.3          1 FAD999   0.0000
     2 O1A         -5.7510     4.1110    31.8320 O.co2        1 FAD999   0.0000
     3 O2A         -6.2230     6.4190    31.1970 O.co2        1 FAD999  -1.0000
     4 O5B         -8.0620     4.8460    31.5510 O.3          1 FAD999   0.0000
     5 C5B         -8.6980     3.3740    31.4800 C.3          1 FAD999   0.0000
     6 C4B         -9.8900     3.2380    32.4730 C.3          1 FAD999   0.0000
     7 O4B         -9.9240     1.9400    33.0840 O.3          1 FAD999   0.0000
     8 C3B         -9.8370     4.1980    33.6860 C.3          1 FAD999   0.0000
     9 O3B        -10.3810     5.5040    33.3850 O.3          1 FAD999   0.0000
    10 C2B        -10.7550     3.4790    34.7080 C.3          1 FAD999   0.0000
    11 O2B        -12.1040     3.9880    34.6340 O.3          1 FAD999   0.0000
    12 C1B        -10.7610     1.9970    34.2560 C.3          1 FAD999   0.0000
    13 N9A        -10.2340     1.1630    35.3780 N.pl3        1 FAD999   0.0000
    14 C8A        -10.8190    -0.0590    35.4880 C.2          1 FAD999   0.0000
    15 N7A         -9.9570    -0.9960    35.6180 N.2          1 FAD999   0.0000
    16 C5A         -8.7020    -0.5470    35.6140 C.ar         1 FAD999   0.0000
    17 C6A         -7.4470    -1.1840    35.7260 C.ar         1 FAD999   0.0000
    18 N6A         -7.3460    -2.5260    35.8730 N.pl3        1 FAD999   0.0000
    19 N1A         -6.3500    -0.3490    35.6740 N.ar         1 FAD999   0.0000
    20 C2A         -6.4750     1.0130    35.5230 C.ar         1 FAD999   0.0000
    21 N3A         -7.7120     1.6070    35.4170 N.ar         1 FAD999   0.0000
    22 C4A         -8.8460     0.8280    35.4620 C.ar         1 FAD999   0.0000
    23 N1          -5.3780    -1.8790    23.9430 N.2          1 FAD999   0.0000
    24 C2          -5.3670    -1.6020    22.5190 C.2          1 FAD999   0.0000
    25 O2          -5.9210    -0.5650    22.1510 O.2          1 FAD999   0.0000
    26 N3          -4.7640    -2.4640    21.6480 N.pl3        1 FAD999   0.0000
    27 C4          -4.1540    -3.6160    22.0990 C.2          1 FAD999   0.0000
    28 O4          -3.6060    -4.4040    21.3500 O.2          1 FAD999   0.0000
    29 C4X         -4.1680    -3.9020    23.5610 C.2          1 FAD999   0.0000
    30 N5          -3.6160    -4.9640    24.0660 N.2          1 FAD999   0.0000
    31 C5X         -3.6170    -5.2440    25.4140 C.ar         1 FAD999   0.0000
    32 C6          -2.9830    -6.4310    25.8710 C.ar         1 FAD999   0.0000
    33 C7          -2.9580    -6.7560    27.2620 C.ar         1 FAD999   0.0000
    34 C7M         -2.2550    -8.0520    27.7040 C.3          1 FAD999   0.0000
    35 C8          -3.5880    -5.8630    28.1930 C.ar         1 FAD999   0.0000
    36 C8M         -3.6290    -6.1040    29.7180 C.3          1 FAD999   0.0000
    37 C9          -4.2160    -4.6800    27.7210 C.ar         1 FAD999   0.0000
    38 C9A         -4.2540    -4.3290    26.3320 C.ar         1 FAD999   0.0000
    39 N10         -4.8560    -3.1700    25.8110 N.pl3        1 FAD999   0.0000
    40 C10         -4.8360    -2.9340    24.4870 C.2          1 FAD999   0.0000
    41 C1'         -5.5300    -2.1380    26.6290 C.3          1 FAD999   0.0000
    42 C2'         -4.4500    -1.0740    27.0600 C.3          1 FAD999   0.0000
    43 O2'         -3.5020    -1.6880    27.9540 O.3          1 FAD999   0.0000
    44 C3'         -5.0490     0.0940    27.8710 C.3          1 FAD999   0.0000
    45 O3'         -5.7380    -0.4370    29.0200 O.3          1 FAD999   0.0000
    46 C4'         -6.0710     0.9160    27.0410 C.3          1 FAD999   0.0000
    47 O4'         -5.4510     1.4900    25.8700 O.3          1 FAD999   0.0000
    48 C5'         -6.6270     2.0770    27.8830 C.3          1 FAD999   0.0000
    49 O5'         -5.6190     2.8950    28.2630 O.3          1 FAD999   0.0000
    50 P           -5.5470     4.3360    28.5780 P.3          1 FAD999   0.0000
    51 O1P         -4.2080     4.6660    29.1400 O.co2        1 FAD999   0.0000
    52 O2P         -5.8030     5.1060    27.3360 O.co2        1 FAD999  -1.0000
    53 O3P         -6.6150     4.5690    29.6140 O.3          1 FAD999   0.0000
    54 H5B1        -7.9962     2.7019    31.7162 H            1 FAD999   0.0000
    55 H5B2        -9.0244     3.2024    30.5505 H            1 FAD999   0.0000
    56 H4B        -10.7455     3.3869    31.9771 H            1 FAD999   0.0000
    57 H3B         -8.9042     4.2742    34.0384 H            1 FAD999   0.0000
    58 H5         -11.3607     5.5113    33.5854 H            1 FAD999   0.0000
    59 H2B        -10.3920     3.5666    35.6356 H            1 FAD999   0.0000
    60 H7         -12.3641     4.3729    35.5195 H            1 FAD999   0.0000
    61 H1B        -11.6918     1.7129    34.0261 H            1 FAD999   0.0000
    62 H8A        -11.8076    -0.2084    35.4695 H            1 FAD999   0.0000
    63 H6A1        -6.4456    -2.9542    35.9503 H            1 FAD999   0.0000
    64 H6A2        -8.1718    -3.0891    35.9043 H            1 FAD999   0.0000
    65 H2A         -5.6527     1.5811    35.4897 H            1 FAD999   0.0000
    66 H13         -4.7647    -2.2571    20.6696 H            1 FAD999   0.0000
    67 H14         -2.5497    -7.0455    25.2117 H            1 FAD999   0.0000
    68 H7M1        -2.3190    -8.1437    28.6977 H            1 FAD999   0.0000
    69 H7M2        -2.6964    -8.8361    27.2678 H            1 FAD999   0.0000
    70 H7M3        -1.2928    -8.0182    27.4337 H            1 FAD999   0.0000
    71 H8M1        -4.1185    -5.3530    30.1611 H            1 FAD999   0.0000
    72 H8M2        -4.0996    -6.9659    29.9067 H            1 FAD999   0.0000
    73 H8M3        -2.6954    -6.1492    30.0735 H            1 FAD999   0.0000
    74 H21         -4.6484    -4.0682    28.3834 H            1 FAD999   0.0000
    75 H1'1        -5.9339    -2.5593    27.4410 H            1 FAD999   0.0000
    76 H1'2        -6.2474    -1.6945    26.0917 H            1 FAD999   0.0000
    77 H2'         -3.9777    -0.7212    26.2522 H            1 FAD999   0.0000
    78 H25         -2.7472    -2.0753    27.4246 H            1 FAD999   0.0000
    79 H3'         -4.3116     0.6961    28.1771 H            1 FAD999   0.0000
    80 H27         -5.7006     0.2266    29.7672 H            1 FAD999   0.0000
    81 H4'         -6.8237     0.3210    26.7592 H            1 FAD999   0.0000
    82 H29         -5.9092     1.1490    25.0492 H            1 FAD999   0.0000
    83 H5'1        -7.0801     1.7100    28.6954 H            1 FAD999   0.0000
    84 H5'2        -7.2868     2.5949    27.3386 H            1 FAD999   0.0000
@<TRIPOS>BOND
     1    1    2      ar
     2    1    3      ar
     3    1    4       1
     4    1   53       1
     5    4    5       1
     6    5    6       1
     7    6    7       1
     8    6    8       1
     9    7   12       1
    10    8    9       1
    11    8   10       1
    12   10   11       1
    13   10   12       1
    14   12   13       1
    15   13   14       1
    16   13   22       1
    17   14   15       2
    18   15   16       1
    19   16   17      ar
    20   16   22      ar
    21   17   18       1
    22   17   19      ar
    23   19   20      ar
    24   20   21      ar
    25   21   22      ar
    26   23   24       1
    27   23   40       2
    28   24   25       2
    29   24   26       1
    30   26   27       1
    31   27   28       2
    32   27   29       1
    33   29   30       2
    34   29   40       1
    35   30   31       1
    36   31   32      ar
    37   31   38      ar
    38   32   33      ar
    39   33   34       1
    40   33   35      ar
    41   35   36       1
    42   35   37      ar
    43   37   38      ar
    44   38   39       1
    45   39   40       1
    46   39   41       1
    47   41   42       1
    48   42   43       1
    49   42   44       1
    50   44   45       1
    51   44   46       1
    52   46   47       1
    53   46   48       1
    54   48   49       1
    55   49   50       1
    56   50   51      ar
    57   50   52      ar
    58   50   53       1
    59   48   84       1
    60    5   54       1
    61    5   55       1
    62    6   56       1
    63    8   57       1
    64    9   58       1
    65   10   59       1
    66   11   60       1
    67   12   61       1
    68   14   62       1
    69   18   63       1
    70   18   64       1
    71   20   65       1
    72   26   66       1
    73   32   67       1
    74   34   68       1
    75   34   69       1
    76   34   70       1
    77   36   71       1
    78   36   72       1
    79   36   73       1
    80   37   74       1
    81   41   75       1
    82   41   76       1
    83   42   77       1
    84   43   78       1
    85   44   79       1
    86   45   80       1
    87   46   81       1
    88   47   82       1
    89   48   83       1
@<TRIPOS>SUBSTRUCTURE
     1 FAD999      1 GROUP             4 A     FAD     0 **** FAD A 999
