@<TRIPOS>MOLECULE
1y56_FMN_1_ligand
   48    50     1     0     0
SMALL
NO_CHARGES


@<TRIPOS>ATOM
     1 N1         109.7510    60.6460    25.1990 N.2          1 FMN802   0.0000
     2 C2         108.4920    60.9100    25.6200 C.2          1 FMN802   0.0000
     3 O2         108.3060    61.7370    26.5420 O.2          1 FMN802   0.0000
     4 N3         107.4310    60.2970    25.0600 N.pl3        1 FMN802   0.0000
     5 C4         107.6080    59.4030    24.0670 C.2          1 FMN802   0.0000
     6 O4         106.6170    58.8380    23.5560 O.2          1 FMN802   0.0000
     7 C4A        108.9010    59.1110    23.6130 C.2          1 FMN802   0.0000
     8 N5         109.1120    58.2110    22.6140 N.2          1 FMN802   0.0000
     9 C5A        110.3580    57.9120    22.1580 C.ar         1 FMN802   0.0000
    10 C6         110.5120    56.9780    21.1270 C.ar         1 FMN802   0.0000
    11 C7         111.7800    56.6500    20.6420 C.ar         1 FMN802   0.0000
    12 C7M        111.8790    55.6290    19.5280 C.3          1 FMN802   0.0000
    13 C8         112.9050    57.2730    21.2040 C.ar         1 FMN802   0.0000
    14 C8M        114.2810    56.9770    20.7350 C.3          1 FMN802   0.0000
    15 C9         112.7530    58.2030    22.2360 C.ar         1 FMN802   0.0000
    16 C9A        111.4820    58.5330    22.7190 C.ar         1 FMN802   0.0000
    17 N10        111.2870    59.4710    23.7690 N.pl3        1 FMN802   0.0000
    18 C10        109.9800    59.7620    24.2110 C.2          1 FMN802   0.0000
    19 C1'        112.4030    60.1730    24.3820 C.3          1 FMN802   0.0000
    20 C2'        113.0110    59.3920    25.5170 C.3          1 FMN802   0.0000
    21 O2'        112.6510    60.0630    26.7380 O.3          1 FMN802   0.0000
    22 C3'        114.5180    59.3180    25.2130 C.3          1 FMN802   0.0000
    23 O3'        115.0920    58.0590    25.6070 O.3          1 FMN802   0.0000
    24 C4'        115.2530    60.4390    25.8750 C.2          1 FMN802   0.0000
    25 O4'        114.6380    61.4510    26.1890 O.2          1 FMN802   0.0000
    26 C5'        116.7350    60.3030    26.1540 C.3          1 FMN802   0.0000
    27 O5'        116.9520    60.5370    27.5420 O.3          1 FMN802   0.0000
    28 P          117.2430    62.0220    28.0970 P.3          1 FMN802   0.0000
    29 O1P        118.6730    62.2600    27.6860 O.co2        1 FMN802   0.0000
    30 O2P        117.0000    61.8980    29.5790 O.co2        1 FMN802  -1.0000
    31 O3P        116.2760    62.9490    27.4180 O.co2        1 FMN802  -1.0000
    32 H1         106.5079    60.5063    25.3826 H            1 FMN802   0.0000
    33 H2         109.7041    56.5401    20.7327 H            1 FMN802   0.0000
    34 H7M1       112.8393    55.4943    19.2836 H            1 FMN802   0.0000
    35 H7M2       111.4884    54.7613    19.8354 H            1 FMN802   0.0000
    36 H7M3       111.3747    55.9572    18.7293 H            1 FMN802   0.0000
    37 H8M1       114.9362    57.5205    21.2598 H            1 FMN802   0.0000
    38 H8M2       114.4753    56.0046    20.8643 H            1 FMN802   0.0000
    39 H8M3       114.3590    57.2064    19.7648 H            1 FMN802   0.0000
    40 H9         113.5613    58.6373    22.6335 H            1 FMN802   0.0000
    41 H1'1       112.0776    61.0510    24.7330 H            1 FMN802   0.0000
    42 H1'2       113.1048    60.3311    23.6874 H            1 FMN802   0.0000
    43 H2'        112.6296    58.4676    25.5234 H            1 FMN802   0.0000
    44 H13        111.7683    60.5179    26.6206 H            1 FMN802   0.0000
    45 H3'        114.6370    59.4140    24.2248 H            1 FMN802   0.0000
    46 H15        114.5892    57.6941    26.3906 H            1 FMN802   0.0000
    47 H5'1       117.2436    60.9739    25.6144 H            1 FMN802   0.0000
    48 H5'2       117.0410    59.3816    25.9145 H            1 FMN802   0.0000
@<TRIPOS>BOND
     1    1    2       1
     2    1   18       2
     3    2    3       2
     4    2    4       1
     5    4    5       1
     6    5    6       2
     7    5    7       1
     8    7    8       2
     9    7   18       1
    10    8    9       1
    11    9   10      ar
    12    9   16      ar
    13   10   11      ar
    14   11   12       1
    15   11   13      ar
    16   13   14       1
    17   13   15      ar
    18   15   16      ar
    19   16   17       1
    20   17   18       1
    21   17   19       1
    22   19   20       1
    23   20   21       1
    24   20   22       1
    25   22   23       1
    26   22   24       1
    27   24   25       2
    28   24   26       1
    29   26   27       1
    30   27   28       1
    31   28   29      ar
    32   28   30      ar
    33   28   31      ar
    34    4   32       1
    35   10   33       1
    36   12   34       1
    37   12   35       1
    38   12   36       1
    39   14   37       1
    40   14   38       1
    41   14   39       1
    42   15   40       1
    43   19   41       1
    44   19   42       1
    45   20   43       1
    46   21   44       1
    47   22   45       1
    48   23   46       1
    49   26   47       1
    50   26   48       1
@<TRIPOS>SUBSTRUCTURE
     1 FMN802      1 GROUP             4 A     FMN     0 **** FMN A 802
