@<TRIPOS>MOLECULE
1e3w_NAD_3_ligand
   70    74     1     0     0
SMALL
NO_CHARGES


@<TRIPOS>ATOM
     1 PA          43.5420    47.0200    27.3980 P.3          1 NAD301   0.0000
     2 O1A         43.6210    48.3430    27.9930 O.co2        1 NAD301   0.0000
     3 O2A         44.8090    46.3920    26.9870 O.co2        1 NAD301  -1.0000
     4 O5B         42.5220    46.9750    26.2100 O.3          1 NAD301   0.0000
     5 C5B         41.2770    47.6910    26.2440 C.3          1 NAD301   0.0000
     6 C4B         41.1620    48.4700    24.9220 C.3          1 NAD301   0.0000
     7 O4B         39.8660    49.1130    25.0310 O.3          1 NAD301   0.0000
     8 C3B         42.2460    49.5230    24.7350 C.3          1 NAD301   0.0000
     9 O3B         42.8820    49.3770    23.4480 O.3          1 NAD301   0.0000
    10 C2B         41.4890    50.8510    24.8820 C.3          1 NAD301   0.0000
    11 O2B         41.9920    51.8970    24.0050 O.3          1 NAD301   0.0000
    12 C1B         40.1040    50.4140    24.4070 C.3          1 NAD301   0.0000
    13 N9A         39.0410    51.3110    24.8620 N.pl3        1 NAD301   0.0000
    14 C8A         38.9430    51.9730    26.0920 C.2          1 NAD301   0.0000
    15 N7A         37.8950    52.7870    26.0810 N.2          1 NAD301   0.0000
    16 C5A         37.4120    52.8300    24.8110 C.ar         1 NAD301   0.0000
    17 C6A         36.3340    53.4830    24.1870 C.ar         1 NAD301   0.0000
    18 N6A         35.5570    54.3860    24.8180 N.pl3        1 NAD301   0.0000
    19 N1A         36.0360    53.1640    22.9080 N.ar         1 NAD301   0.0000
    20 C2A         36.8080    52.2170    22.2200 C.ar         1 NAD301   0.0000
    21 N3A         37.8410    51.5720    22.7400 N.ar         1 NAD301   0.0000
    22 C4A         38.0830    51.8820    24.0230 C.ar         1 NAD301   0.0000
    23 O3          42.8400    46.0890    28.5140 O.3          1 NAD301   0.0000
    24 PN          42.2160    44.6100    28.4350 P.3          1 NAD301   0.0000
    25 O1N         42.7020    43.9480    29.6450 O.co2        1 NAD301   0.0000
    26 O2N         42.4840    43.9960    27.1160 O.co2        1 NAD301  -1.0000
    27 O5D         40.6340    44.8840    28.5840 O.3          1 NAD301   0.0000
    28 C5D         39.7280    44.1510    27.6970 C.3          1 NAD301   0.0000
    29 C4D         38.4340    43.9490    28.4380 C.3          1 NAD301   0.0000
    30 O4D         38.7550    42.9130    29.4170 O.3          1 NAD301   0.0000
    31 C3D         37.9340    45.1720    29.2140 C.3          1 NAD301   0.0000
    32 O3D         36.4940    45.1580    29.1020 O.3          1 NAD301   0.0000
    33 C2D         38.3420    44.8500    30.6070 C.3          1 NAD301   0.0000
    34 O2D         37.4700    45.4900    31.5520 O.3          1 NAD301   0.0000
    35 C1D         38.1840    43.3350    30.6640 C.3          1 NAD301   0.0000
    36 N1N         38.9120    42.6220    31.7000 N.ar         1 NAD301   1.0000
    37 C2N         40.2560    42.7190    31.8200 C.ar         1 NAD301   0.0000
    38 C3N         40.9020    42.0070    32.7750 C.ar         1 NAD301   0.0000
    39 C7N         42.4220    41.9880    32.9920 C.2          1 NAD301   0.0000
    40 O7N         42.8670    41.5020    34.0200 O.2          1 NAD301   0.0000
    41 N7N         43.1850    42.4680    31.9710 N.am         1 NAD301   0.0000
    42 C4N         40.2340    41.2000    33.7810 C.ar         1 NAD301   0.0000
    43 C5N         38.8370    41.2200    33.6170 C.ar         1 NAD301   0.0000
    44 C6N         38.1380    41.9000    32.6460 C.ar         1 NAD301   0.0000
    45 H5B1        41.2678    48.3253    27.0170 H            1 NAD301   0.0000
    46 H5B2        40.5151    47.0491    26.3305 H            1 NAD301   0.0000
    47 H4B         41.1650    47.8351    24.1494 H            1 NAD301   0.0000
    48 H3B         42.9282    49.4397    25.4614 H            1 NAD301   0.0000
    49 H5          42.1995    49.4837    22.7249 H            1 NAD301   0.0000
    50 H2B         41.4679    51.1541    25.8347 H            1 NAD301   0.0000
    51 H7          41.5020    51.8658    23.1339 H            1 NAD301   0.0000
    52 H1B         40.0873    50.3310    23.4106 H            1 NAD301   0.0000
    53 H8A         39.5685    51.8508    26.8626 H            1 NAD301   0.0000
    54 H6A1        34.8016    54.8234    24.3301 H            1 NAD301   0.0000
    55 H6A2        35.7361    54.6185    25.7740 H            1 NAD301   0.0000
    56 H2A         36.5617    52.0150    21.2721 H            1 NAD301   0.0000
    57 H5D1        40.1265    43.2654    27.4582 H            1 NAD301   0.0000
    58 H5D2        39.5652    44.6789    26.8634 H            1 NAD301   0.0000
    59 H4D         37.7251    43.6242    27.8120 H            1 NAD301   0.0000
    60 H3D         38.3361    46.0262    28.8843 H            1 NAD301   0.0000
    61 H17         36.1752    44.2138    29.0194 H            1 NAD301   0.0000
    62 H2D         39.2932    45.1134    30.7676 H            1 NAD301   0.0000
    63 H19         37.5100    46.4810    31.4244 H            1 NAD301   0.0000
    64 H1D         37.2145    43.0922    30.6970 H            1 NAD301   0.0000
    65 H2N         40.7720    43.3152    31.2049 H            1 NAD301   0.0000
    66 H7N1        44.1814    42.4809    32.0547 H            1 NAD301   0.0000
    67 H7N2        42.7488    42.8075    31.1377 H            1 NAD301   0.0000
    68 H4N         40.7083    40.6931    34.5008 H            1 NAD301   0.0000
    69 H5N         38.2988    40.6876    34.2704 H            1 NAD301   0.0000
    70 H6N         37.1388    41.8863    32.6088 H            1 NAD301   0.0000
@<TRIPOS>BOND
     1    1    2      ar
     2    1    3      ar
     3    1    4       1
     4    1   23       1
     5    4    5       1
     6    5    6       1
     7    6    7       1
     8    6    8       1
     9    7   12       1
    10    8    9       1
    11    8   10       1
    12   10   11       1
    13   10   12       1
    14   12   13       1
    15   13   14       1
    16   13   22       1
    17   14   15       2
    18   15   16       1
    19   16   17      ar
    20   16   22      ar
    21   17   18       1
    22   17   19      ar
    23   19   20      ar
    24   20   21      ar
    25   21   22      ar
    26   23   24       1
    27   24   25      ar
    28   24   26      ar
    29   24   27       1
    30   27   28       1
    31   28   29       1
    32   29   30       1
    33   29   31       1
    34   30   35       1
    35   31   32       1
    36   31   33       1
    37   33   34       1
    38   33   35       1
    39   35   36       1
    40   36   37      ar
    41   36   44      ar
    42   37   38      ar
    43   38   39       1
    44   38   42      ar
    45   39   40       2
    46   39   41      am
    47   42   43      ar
    48   43   44      ar
    49   44   70       1
    50    5   45       1
    51    5   46       1
    52    6   47       1
    53    8   48       1
    54    9   49       1
    55   10   50       1
    56   11   51       1
    57   12   52       1
    58   14   53       1
    59   18   54       1
    60   18   55       1
    61   20   56       1
    62   43   69       1
    63   28   57       1
    64   28   58       1
    65   29   59       1
    66   31   60       1
    67   32   61       1
    68   33   62       1
    69   34   63       1
    70   35   64       1
    71   37   65       1
    72   41   66       1
    73   41   67       1
    74   42   68       1
@<TRIPOS>SUBSTRUCTURE
     1 NAD301      1 GROUP             4 C     NAD     0 **** NAD C 301
