@<TRIPOS>MOLECULE
4mvf_STU_1_ligand
   62    69     1     0     0
SMALL
NO_CHARGES


@<TRIPOS>ATOM
     1 O4          31.8460    87.3650    21.1060 O.3          1 STU601   0.0000
     2 C25         30.5910    86.7200    20.8740 C.3          1 STU601   0.0000
     3 C24         29.4460    87.2780    21.7030 C.3          1 STU601   0.0000
     4 C23         30.0120    88.3220    22.6470 C.3          1 STU601   0.0000
     5 C22         31.1790    87.6990    23.4350 C.3          1 STU601   0.0000
     6 C21         32.3200    87.5070    22.4250 C.3          1 STU601   0.0000
     7 C26         33.1320    88.8230    22.2980 C.3          1 STU601   0.0000
     8 N2          33.1450    86.3110    22.7400 N.pl3        1 STU601   0.0000
     9 C18         32.8120    85.0480    22.1960 C.ar         1 STU601   0.0000
    10 C19         31.8230    84.5920    21.3370 C.ar         1 STU601   0.0000
    11 C6          31.7350    83.2670    20.9590 C.ar         1 STU601   0.0000
    12 C7          32.6880    82.3300    21.4680 C.ar         1 STU601   0.0000
    13 C10         33.6700    82.7920    22.3250 C.ar         1 STU601   0.0000
    14 C11         33.7570    84.0970    22.6990 C.ar         1 STU601   0.0000
    15 C12         34.6490    84.8300    23.5620 C.ar         1 STU601   0.0000
    16 C17         34.2370    86.1750    23.5690 C.ar         1 STU601   0.0000
    17 C16         34.9530    87.0990    24.3480 C.ar         1 STU601   0.0000
    18 C15         36.0440    86.6400    25.0670 C.ar         1 STU601   0.0000
    19 C14         36.4340    85.3070    25.0500 C.ar         1 STU601   0.0000
    20 C13         35.7610    84.3660    24.3130 C.ar         1 STU601   0.0000
    21 C9          34.5480    81.6110    22.7190 C.3          1 STU601   0.0000
    22 N1          33.9790    80.5030    22.0370 N.am         1 STU601   0.0000
    23 C8          32.8900    80.9100    21.2970 C.2          1 STU601   0.0000
    24 O5          32.2330    80.1430    20.6020 O.2          1 STU601   0.0000
    25 C5          30.6020    83.1640    20.0770 C.ar         1 STU601   0.0000
    26 C20         30.0580    84.4520    19.9690 C.ar         1 STU601   0.0000
    27 C1          28.9350    84.6970    19.1700 C.ar         1 STU601   0.0000
    28 C2          28.3990    83.6170    18.5120 C.ar         1 STU601   0.0000
    29 C3          28.9270    82.3330    18.6170 C.ar         1 STU601   0.0000
    30 C4          30.0400    82.1020    19.4030 C.ar         1 STU601   0.0000
    31 N3          30.8000    85.2850    20.7380 N.pl3        1 STU601   0.0000
    32 O6          30.6810    86.4010    23.8550 O.3          1 STU601   0.0000
    33 C27         31.2130    86.0710    25.1640 C.3          1 STU601   0.0000
    34 N4          28.9960    88.8210    23.5710 N.4          1 STU601   1.0000
    35 C28         29.4010    89.8930    24.5200 C.3          1 STU601   0.0000
    36 H1          30.3579    87.0046    19.9441 H            1 STU601   0.0000
    37 H2          29.0182    86.5425    22.2284 H            1 STU601   0.0000
    38 H3          28.7657    87.6977    21.1021 H            1 STU601   0.0000
    39 H4          30.3607    89.0884    22.1076 H            1 STU601   0.0000
    40 H5          31.4545    88.2660    24.2113 H            1 STU601   0.0000
    41 H6          33.5364    89.0519    23.1835 H            1 STU601   0.0000
    42 H7          33.8581    88.7026    21.6211 H            1 STU601   0.0000
    43 H8          32.5248    89.5626    22.0076 H            1 STU601   0.0000
    44 H9          34.6825    88.0611    24.3824 H            1 STU601   0.0000
    45 H10         36.5686    87.2900    25.6168 H            1 STU601   0.0000
    46 H11         37.2273    85.0256    25.5899 H            1 STU601   0.0000
    47 H12         36.0385    83.4053    24.3051 H            1 STU601   0.0000
    48 H13         34.5244    81.4674    23.7083 H            1 STU601   0.0000
    49 H14         35.4926    81.7594    22.4262 H            1 STU601   0.0000
    50 H15         34.3191    79.5639    22.0865 H            1 STU601   0.0000
    51 H16         28.5426    85.6126    19.0826 H            1 STU601   0.0000
    52 H17         27.5959    83.7589    17.9333 H            1 STU601   0.0000
    53 H18         28.4998    81.5761    18.1225 H            1 STU601   0.0000
    54 H19         30.4289    81.1840    19.4808 H            1 STU601   0.0000
    55 H20         30.8673    85.1768    25.4486 H            1 STU601   0.0000
    56 H21         32.2117    86.0439    25.1208 H            1 STU601   0.0000
    57 H22         30.9266    86.7648    25.8248 H            1 STU601   0.0000
    58 H23         28.6771    88.0443    24.1142 H            1 STU601   0.0000
    59 H24         28.6204    90.1438    25.0925 H            1 STU601   0.0000
    60 H25         30.1461    89.5617    25.0989 H            1 STU601   0.0000
    61 H26         29.7087    90.6940    24.0065 H            1 STU601   0.0000
    62 H27         28.2397    89.1766    23.0218 H            1 STU601   0.0000
@<TRIPOS>BOND
     1    1    2       1
     2    1    6       1
     3    2    3       1
     4    2   31       1
     5    3    4       1
     6    4    5       1
     7    4   34       1
     8    5    6       1
     9    5   32       1
    10    6    7       1
    11    6    8       1
    12    8    9       1
    13    8   16       1
    14    9   10      ar
    15    9   14      ar
    16   10   11      ar
    17   10   31       1
    18   11   12      ar
    19   11   25       1
    20   12   13      ar
    21   12   23       1
    22   13   14      ar
    23   13   21       1
    24   14   15       1
    25   15   16      ar
    26   15   20      ar
    27   16   17      ar
    28   17   18      ar
    29   18   19      ar
    30   19   20      ar
    31   21   22       1
    32   22   23      am
    33   23   24       2
    34   25   26      ar
    35   25   30      ar
    36   26   27      ar
    37   26   31       1
    38   27   28      ar
    39   28   29      ar
    40   29   30      ar
    41   32   33       1
    42   34   35       1
    43    2   36       1
    44    3   37       1
    45    3   38       1
    46    4   39       1
    47    5   40       1
    48    7   41       1
    49    7   42       1
    50    7   43       1
    51   17   44       1
    52   18   45       1
    53   19   46       1
    54   20   47       1
    55   21   48       1
    56   21   49       1
    57   22   50       1
    58   27   51       1
    59   28   52       1
    60   29   53       1
    61   30   54       1
    62   33   55       1
    63   33   56       1
    64   33   57       1
    65   34   58       1
    66   35   59       1
    67   35   60       1
    68   35   61       1
    69   34   62       1
@<TRIPOS>SUBSTRUCTURE
     1 STU601      1 GROUP             4 A     STU     0 **** STU A 601
