@<TRIPOS>MOLECULE
3gka_FMN_1_ligand
   50    52     1     0     0
SMALL
NO_CHARGES


@<TRIPOS>ATOM
     1 N1           4.7770     7.0540     4.0960 N.2          1 FMN362   0.0000
     2 C2           4.5840     5.6870     4.1100 C.2          1 FMN362   0.0000
     3 O2           4.2520     5.1250     5.1530 O.2          1 FMN362   0.0000
     4 N3           4.7630     4.9490     2.9570 N.pl3        1 FMN362   0.0000
     5 C4           5.1350     5.5740     1.7840 C.2          1 FMN362   0.0000
     6 O4           5.3880     4.9040     0.7840 O.2          1 FMN362   0.0000
     7 C4A          5.3310     6.9490     1.7660 C.2          1 FMN362   0.0000
     8 N5           5.7030     7.5810     0.5970 N.2          1 FMN362   0.0000
     9 C5A          5.8960     8.9470     0.5830 C.ar         1 FMN362   0.0000
    10 C6           6.2720     9.5840    -0.5940 C.ar         1 FMN362   0.0000
    11 C7           6.4660    10.9600    -0.6080 C.ar         1 FMN362   0.0000
    12 C7M          6.8920    11.6450    -1.8730 C.3          1 FMN362   0.0000
    13 C8           6.2860    11.7000     0.5550 C.ar         1 FMN362   0.0000
    14 C8M          6.5860    13.1700     0.5620 C.3          1 FMN362   0.0000
    15 C9           5.9100    11.0630     1.7320 C.ar         1 FMN362   0.0000
    16 C9A          5.7160     9.6870     1.7470 C.ar         1 FMN362   0.0000
    17 N10          5.3430     9.0550     2.9160 N.pl3        1 FMN362   0.0000
    18 C10          5.1500     7.6880     2.9290 C.2          1 FMN362   0.0000
    19 C1'          5.2570     9.8350     4.1940 C.3          1 FMN362   0.0000
    20 C2'          6.6400     9.9280     4.8260 C.3          1 FMN362   0.0000
    21 O2'          7.0730     8.6400     5.2010 O.3          1 FMN362   0.0000
    22 C3'          6.6200    10.8340     6.0520 C.3          1 FMN362   0.0000
    23 O3'          5.8320    10.2420     7.0610 O.3          1 FMN362   0.0000
    24 C4'          6.0570    12.2070     5.7070 C.3          1 FMN362   0.0000
    25 O4'          6.6840    12.6940     4.5420 O.3          1 FMN362   0.0000
    26 C5'          6.2760    13.1900     6.8510 C.3          1 FMN362   0.0000
    27 O5'          7.6320    13.1690     7.2360 O.3          1 FMN362   0.0000
    28 P            8.6040    14.4010     6.8750 P.3          1 FMN362   0.0000
    29 O1P          7.9670    15.6730     7.3810 O.co2        1 FMN362   0.0000
    30 O2P          8.7850    14.4840     5.3780 O.co2        1 FMN362  -1.0000
    31 O3P          9.9450    14.2030     7.5390 O.co2        1 FMN362  -1.0000
    32 H1           4.6228     3.9590     2.9718 H            1 FMN362   0.0000
    33 H2           6.4029     9.0521    -1.4306 H            1 FMN362   0.0000
    34 H7M1         6.9840    12.6266    -1.7058 H            1 FMN362   0.0000
    35 H7M2         7.7709    11.2742    -2.1732 H            1 FMN362   0.0000
    36 H7M3         6.2051    11.4908    -2.5832 H            1 FMN362   0.0000
    37 H8M1         6.4030    13.5432     1.4715 H            1 FMN362   0.0000
    38 H8M2         7.5477    13.3150     0.3295 H            1 FMN362   0.0000
    39 H8M3         6.0072    13.6315    -0.1103 H            1 FMN362   0.0000
    40 H9           5.7790    11.5952     2.5684 H            1 FMN362   0.0000
    41 H1'1         4.6326     9.3739     4.8246 H            1 FMN362   0.0000
    42 H1'2         4.9163    10.7551     4.0007 H            1 FMN362   0.0000
    43 H2'          7.2794    10.3033     4.1549 H            1 FMN362   0.0000
    44 H13          7.5707     8.2213     4.4414 H            1 FMN362   0.0000
    45 H3'          7.5545    10.9421     6.3912 H            1 FMN362   0.0000
    46 H15          6.1769    10.5179     7.9582 H            1 FMN362   0.0000
    47 H4'          5.0755    12.1217     5.5358 H            1 FMN362   0.0000
    48 H17          7.4989    13.2153     4.7952 H            1 FMN362   0.0000
    49 H5'1         5.7046    12.9287     7.6289 H            1 FMN362   0.0000
    50 H5'2         6.0291    14.1113     6.5506 H            1 FMN362   0.0000
@<TRIPOS>BOND
     1    1    2       1
     2    1   18       2
     3    2    3       2
     4    2    4       1
     5    4    5       1
     6    5    6       2
     7    5    7       1
     8    7    8       2
     9    7   18       1
    10    8    9       1
    11    9   10      ar
    12    9   16      ar
    13   10   11      ar
    14   11   12       1
    15   11   13      ar
    16   13   14       1
    17   13   15      ar
    18   15   16      ar
    19   16   17       1
    20   17   18       1
    21   17   19       1
    22   19   20       1
    23   20   21       1
    24   20   22       1
    25   22   23       1
    26   22   24       1
    27   24   25       1
    28   24   26       1
    29   26   27       1
    30   27   28       1
    31   28   29      ar
    32   28   30      ar
    33   28   31      ar
    34    4   32       1
    35   10   33       1
    36   12   34       1
    37   12   35       1
    38   12   36       1
    39   14   37       1
    40   14   38       1
    41   14   39       1
    42   15   40       1
    43   19   41       1
    44   19   42       1
    45   20   43       1
    46   21   44       1
    47   22   45       1
    48   23   46       1
    49   24   47       1
    50   25   48       1
    51   26   49       1
    52   26   50       1
@<TRIPOS>SUBSTRUCTURE
     1 FMN362      1 GROUP             4 A     FMN     0 **** FMN A 362
