@<TRIPOS>MOLECULE
1p9p_SAH_1_ligand
   46    48     1     0     0
SMALL
NO_CHARGES


@<TRIPOS>ATOM
     1 N           36.4710    37.3270    41.2710 N.4          1 SAH300   1.0000
     2 CA          36.1630    38.6800    41.6370 C.3          1 SAH300   0.0000
     3 CB          35.9130    39.4070    40.3480 C.3          1 SAH300   0.0000
     4 CG          36.2350    40.8260    40.4690 C.3          1 SAH300   0.0000
     5 SD          36.6240    41.8020    39.0370 S.3          1 SAH300   0.0000
     6 C           34.8950    38.7300    42.4090 C.2          1 SAH300   0.0000
     7 O           34.9380    37.9690    43.3750 O.co2        1 SAH300   0.0000
     8 OXT         34.6590    39.9220    42.8080 O.co2        1 SAH300  -1.0000
     9 C5'         36.7600    43.3330    39.6590 C.3          1 SAH300   0.0000
    10 C4'         35.6900    44.1910    40.2780 C.3          1 SAH300   0.0000
    11 O4'         34.9620    44.9950    39.2450 O.3          1 SAH300   0.0000
    12 C3'         34.6170    43.6340    41.3250 C.3          1 SAH300   0.0000
    13 O3'         35.0480    44.0160    42.5870 O.3          1 SAH300   0.0000
    14 C2'         33.2780    44.2790    40.7540 C.3          1 SAH300   0.0000
    15 O2'         32.8120    45.3520    41.6690 O.3          1 SAH300   0.0000
    16 C1'         33.5370    44.8540    39.3470 C.3          1 SAH300   0.0000
    17 N9          32.9220    43.8530    38.3480 N.pl3        1 SAH300   0.0000
    18 C8          33.5190    43.0150    37.4420 C.2          1 SAH300   0.0000
    19 N7          32.8040    42.3540    36.7050 N.2          1 SAH300   0.0000
    20 C5          31.5070    42.7550    37.0860 C.ar         1 SAH300   0.0000
    21 C6          30.0780    42.4530    36.6420 C.ar         1 SAH300   0.0000
    22 N6          29.7390    41.6310    35.7020 N.pl3        1 SAH300   0.0000
    23 N1          29.0600    43.1010    37.3130 N.ar         1 SAH300   0.0000
    24 C2          29.2960    43.9730    38.3530 C.ar         1 SAH300   0.0000
    25 N3          30.5170    44.2910    38.8060 N.ar         1 SAH300   0.0000
    26 C4          31.5930    43.6740    38.1280 C.ar         1 SAH300   0.0000
    27 H1          36.6483    36.7906    42.0961 H            1 SAH300   0.0000
    28 H2          35.6975    36.9313    40.7760 H            1 SAH300   0.0000
    29 HA          36.9147    39.0970    42.1480 H            1 SAH300   0.0000
    30 HB1         34.9485    39.3116    40.1018 H            1 SAH300   0.0000
    31 HB2         36.4815    39.0038    39.6309 H            1 SAH300   0.0000
    32 HG1         37.0259    40.8870    41.0779 H            1 SAH300   0.0000
    33 HG2         35.4458    41.2604    40.9032 H            1 SAH300   0.0000
    34 H5'1        37.1139    43.8811    38.9011 H            1 SAH300   0.0000
    35 H5'2        37.4601    43.2541    40.3687 H            1 SAH300   0.0000
    36 H4'         36.2013    44.8748    40.7985 H            1 SAH300   0.0000
    37 H3'         34.5682    42.6369    41.2673 H            1 SAH300   0.0000
    38 H12         34.4012    43.6855    43.2743 H            1 SAH300   0.0000
    39 H2'         32.5738    43.5716    40.6938 H            1 SAH300   0.0000
    40 H14         32.1983    44.9616    42.3553 H            1 SAH300   0.0000
    41 H1'         33.0960    45.7467    39.2542 H            1 SAH300   0.0000
    42 H16         34.5151    42.9467    37.3860 H            1 SAH300   0.0000
    43 H17         28.7734    41.4966    35.4795 H            1 SAH300   0.0000
    44 H18         30.4426    41.1301    35.1980 H            1 SAH300   0.0000
    45 H19         28.5065    44.3955    38.7982 H            1 SAH300   0.0000
    46 H20         37.2819    37.3163    40.6859 H            1 SAH300   0.0000
@<TRIPOS>BOND
     1    1    2       1
     2    2    3       1
     3    2    6       1
     4    3    4       1
     5    4    5       1
     6    5    9       1
     7    6    7      ar
     8    6    8      ar
     9    9   10       1
    10   10   11       1
    11   10   12       1
    12   11   16       1
    13   12   13       1
    14   12   14       1
    15   14   15       1
    16   14   16       1
    17   16   17       1
    18   17   18       1
    19   17   26       1
    20   18   19       2
    21   19   20       1
    22   20   21      ar
    23   20   26      ar
    24   21   22       1
    25   21   23      ar
    26   23   24      ar
    27   24   25      ar
    28   25   26      ar
    29    1   27       1
    30    1   28       1
    31    2   29       1
    32    3   30       1
    33    3   31       1
    34    4   32       1
    35    4   33       1
    36    1   46       1
    37    9   34       1
    38    9   35       1
    39   10   36       1
    40   12   37       1
    41   13   38       1
    42   14   39       1
    43   15   40       1
    44   16   41       1
    45   18   42       1
    46   22   43       1
    47   22   44       1
    48   24   45       1
@<TRIPOS>SUBSTRUCTURE
     1 SAH300      1 GROUP             4 A     SAH     0 **** SAH A 300
