@<TRIPOS>MOLECULE
3nal_DBK_1_ligand
   96    98     1     0     0
SMALL
NO_CHARGES


@<TRIPOS>ATOM
     1 C1          -4.2690     9.1920    84.8900 C.3          1 DBK997   0.0000
     2 C2          -4.0240     8.9180    83.4040 C.3          1 DBK997   0.0000
     3 C3          -2.5670     9.2780    83.0960 C.3          1 DBK997   0.0000
     4 O3          -2.4670    10.4410    82.2580 O.3          1 DBK997   0.0000
     5 C4          -1.9510     9.6050    84.4540 C.2          1 DBK997   0.0000
     6 O4          -2.0830     8.8640    80.7240 O.2          1 DBK997   0.0000
     7 C5          -2.9180     9.6230    85.4480 C.2          1 DBK997   0.0000
     8 O5          -1.5650     9.1120    87.4160 O.3          1 DBK997   0.0000
     9 C6          -2.5700     9.9890    86.8870 C.3          1 DBK997   0.0000
    10 O6          -4.1640     8.3670    87.7400 O.3          1 DBK997   0.0000
    11 C7          -3.7420     9.7290    87.8250 C.3          1 DBK997   0.0000
    12 O7          -4.5210    12.0540    87.5350 O.3          1 DBK997   0.0000
    13 C8          -4.9230    10.6800    87.6300 C.3          1 DBK997   0.0000
    14 O8          -5.4160    11.9770    89.5700 O.2          1 DBK997   0.0000
    15 C9          -5.8950    10.2770    86.5170 C.3          1 DBK997   0.0000
    16 O9          -6.3700     9.8700    84.2030 O.3          1 DBK997   0.0000
    17 C10         -5.3310    10.2750    85.0930 C.3          1 DBK997   0.0000
    18 O10         -7.4070    11.7730    84.7990 O.2          1 DBK997   0.0000
    19 C11         -2.9910     9.9320    89.1370 C.3          1 DBK997   0.0000
    20 O11         -2.8010    11.3300    89.3670 O.3          1 DBK997   0.0000
    21 C12         -1.6580     9.2850    88.7630 C.2          1 DBK997   0.0000
    22 O12         -0.8010     8.9140    89.5650 O.2          1 DBK997   0.0000
    23 C21         -2.2410    10.0580    80.9720 C.2          1 DBK997   0.0000
    24 C22         -2.1060    11.0880    79.8460 C.2          1 DBK997   0.0000
    25 C23         -2.1730    10.6140    78.3930 C.3          1 DBK997   0.0000
    26 C24         -1.8560    12.4270    80.1110 C.2          1 DBK997   0.0000
    27 C25         -1.6940    12.9230    81.5500 C.3          1 DBK997   0.0000
    28 C26         -0.4680     9.8930    84.6990 C.3          1 DBK997   0.0000
    29 C27         -4.8570    12.6570    88.7030 C.2          1 DBK997   0.0000
    30 C28         -4.5560    14.1360    88.9510 C.3          1 DBK997   0.0000
    31 C31         -4.8080    11.6580    84.7020 C.3          1 DBK997   0.0000
    32 C32         -7.4270    10.7330    84.1550 C.2          1 DBK997   0.0000
    33 C33         -8.6490    10.3320    83.3330 C.3          1 DBK997   0.0000
    34 C34         -3.6600     9.2270    90.3190 C.3          1 DBK997   0.0000
    35 C35         -3.0490    14.3980    88.9970 C.3          1 DBK997   0.0000
    36 C36         -2.7090    15.8610    89.2960 C.3          1 DBK997   0.0000
    37 C37         -1.1910    16.0530    89.2330 C.3          1 DBK997   0.0000
    38 C38         -0.7750    17.5010    89.4970 C.3          1 DBK997   0.0000
    39 C39         -1.2270    17.9350    90.8930 C.3          1 DBK997   0.0000
    40 C40         -0.8880    19.3960    91.1970 C.3          1 DBK997   0.0000
    41 C41          0.6170    19.6750    91.2450 C.3          1 DBK997   0.0000
    42 C42          0.8710    21.0370    91.8970 C.3          1 DBK997   0.0000
    43 C43          2.3600    21.3120    92.1150 C.3          1 DBK997   0.0000
    44 C44          2.5710    22.6210    92.8810 C.3          1 DBK997   0.0000
    45 H1          -4.5622     8.3488    85.3406 H            1 DBK997   0.0000
    46 H2          -4.6378     9.4792    82.8488 H            1 DBK997   0.0000
    47 H3          -4.1850     7.9513    83.2052 H            1 DBK997   0.0000
    48 H4          -2.0962     8.5023    82.6758 H            1 DBK997   0.0000
    49 H5          -2.2741    10.9423    86.9473 H            1 DBK997   0.0000
    50 H6          -4.9326     8.2167    88.3619 H            1 DBK997   0.0000
    51 H7          -5.4523    10.6188    88.4762 H            1 DBK997   0.0000
    52 H8          -6.6650    10.9146    86.5390 H            1 DBK997   0.0000
    53 H9          -6.2214     9.3532    86.7170 H            1 DBK997   0.0000
    54 H10         -3.6909    11.7832    89.4191 H            1 DBK997   0.0000
    55 H11         -2.0696    11.3984    77.7814 H            1 DBK997   0.0000
    56 H12         -1.4373     9.9586    78.2219 H            1 DBK997   0.0000
    57 H13         -3.0559    10.1752    78.2259 H            1 DBK997   0.0000
    58 H14         -1.7808    13.0752    79.3533 H            1 DBK997   0.0000
    59 H15         -1.5204    13.9078    81.5456 H            1 DBK997   0.0000
    60 H16         -2.5309    12.7343    82.0638 H            1 DBK997   0.0000
    61 H17         -0.9248    12.4509    81.9807 H            1 DBK997   0.0000
    62 H18         -0.3204    10.0780    85.6706 H            1 DBK997   0.0000
    63 H19          0.0754     9.0997    84.4245 H            1 DBK997   0.0000
    64 H20         -0.1900    10.6895    84.1620 H            1 DBK997   0.0000
    65 H21         -4.9606    14.4086    89.8239 H            1 DBK997   0.0000
    66 H22         -4.9583    14.6782    88.2133 H            1 DBK997   0.0000
    67 H23         -5.5258    12.3390    84.8469 H            1 DBK997   0.0000
    68 H24         -4.0139    11.8856    85.2655 H            1 DBK997   0.0000
    69 H25         -4.5424    11.6536    83.7379 H            1 DBK997   0.0000
    70 H26         -9.3392    11.0535    83.3882 H            1 DBK997   0.0000
    71 H27         -8.3803    10.2001    82.3789 H            1 DBK997   0.0000
    72 H28         -9.0281     9.4797    83.6934 H            1 DBK997   0.0000
    73 H29         -3.1287     9.3923    91.1499 H            1 DBK997   0.0000
    74 H30         -4.5864     9.5840    90.4392 H            1 DBK997   0.0000
    75 H31         -3.7022     8.2440    90.1404 H            1 DBK997   0.0000
    76 H32         -2.6551    14.1532    88.1110 H            1 DBK997   0.0000
    77 H33         -2.6468    13.8244    89.7106 H            1 DBK997   0.0000
    78 H34         -3.0380    16.1001    90.2096 H            1 DBK997   0.0000
    79 H35         -3.1484    16.4509    88.6185 H            1 DBK997   0.0000
    80 H36         -0.8712    15.7877    88.3234 H            1 DBK997   0.0000
    81 H37         -0.7642    15.4658    89.9208 H            1 DBK997   0.0000
    82 H38         -1.1976    18.0959    88.8132 H            1 DBK997   0.0000
    83 H39          0.2202    17.5754    89.4341 H            1 DBK997   0.0000
    84 H40         -0.7752    17.3543    91.5703 H            1 DBK997   0.0000
    85 H41         -2.2177    17.8161    90.9597 H            1 DBK997   0.0000
    86 H42         -1.2829    19.6349    92.0841 H            1 DBK997   0.0000
    87 H43         -1.2941    19.9700    90.4859 H            1 DBK997   0.0000
    88 H44          0.9839    19.6786    90.3147 H            1 DBK997   0.0000
    89 H45          1.0701    18.9614    91.7793 H            1 DBK997   0.0000
    90 H46          0.4073    21.0603    92.7827 H            1 DBK997   0.0000
    91 H47          0.4960    21.7509    91.3056 H            1 DBK997   0.0000
    92 H48          2.8140    21.3765    91.2263 H            1 DBK997   0.0000
    93 H49          2.7582    20.5590    92.6388 H            1 DBK997   0.0000
    94 H50          3.5502    22.7775    93.0102 H            1 DBK997   0.0000
    95 H51          2.1782    23.3790    92.3603 H            1 DBK997   0.0000
    96 H52          2.1224    22.5614    93.7727 H            1 DBK997   0.0000
@<TRIPOS>BOND
     1    1    2       1
     2    1    7       1
     3    1   17       1
     4    2    3       1
     5    3    4       1
     6    3    5       1
     7    4   23       1
     8    5    7       2
     9    5   28       1
    10    6   23       2
    11    7    9       1
    12    8    9       1
    13    8   21       1
    14    9   11       1
    15   10   11       1
    16   11   13       1
    17   11   19       1
    18   12   13       1
    19   12   29       1
    20   13   15       1
    21   14   29       2
    22   15   17       1
    23   16   17       1
    24   16   32       1
    25   17   31       1
    26   18   32       2
    27   19   20       1
    28   19   21       1
    29   19   34       1
    30   21   22       2
    31   23   24       1
    32   24   25       1
    33   24   26       2
    34   26   27       1
    35   29   30       1
    36   30   35       1
    37   32   33       1
    38   35   36       1
    39   36   37       1
    40   37   38       1
    41   38   39       1
    42   39   40       1
    43   40   41       1
    44   41   42       1
    45   42   43       1
    46   43   44       1
    47    1   45       1
    48    2   46       1
    49    2   47       1
    50    3   48       1
    51    9   49       1
    52   10   50       1
    53   13   51       1
    54   15   52       1
    55   15   53       1
    56   20   54       1
    57   25   55       1
    58   25   56       1
    59   25   57       1
    60   26   58       1
    61   27   59       1
    62   27   60       1
    63   27   61       1
    64   28   62       1
    65   28   63       1
    66   28   64       1
    67   30   65       1
    68   30   66       1
    69   31   67       1
    70   31   68       1
    71   31   69       1
    72   33   70       1
    73   33   71       1
    74   33   72       1
    75   34   73       1
    76   34   74       1
    77   34   75       1
    78   35   76       1
    79   35   77       1
    80   36   78       1
    81   36   79       1
    82   37   80       1
    83   37   81       1
    84   38   82       1
    85   38   83       1
    86   39   84       1
    87   39   85       1
    88   40   86       1
    89   40   87       1
    90   41   88       1
    91   41   89       1
    92   42   90       1
    93   42   91       1
    94   43   92       1
    95   43   93       1
    96   44   94       1
    97   44   95       1
    98   44   96       1
@<TRIPOS>SUBSTRUCTURE
     1 DBK997      1 GROUP             4 A     DBK     0 **** DBK A 997
