@<TRIPOS>MOLECULE
3q9t_FAY_2_ligand
   83    88     1     0     0
SMALL
NO_CHARGES


@<TRIPOS>ATOM
     1 P           50.8080   -37.8250    -4.1140 P.3          1 FAY600   0.0000
     2 N1          46.8170   -46.0860    -2.2970 N.2          1 FAY600   0.0000
     3 C2          47.0440   -47.3570    -2.8040 C.2          1 FAY600   0.0000
     4 O2          47.0650   -47.5760    -4.0130 O.2          1 FAY600   0.0000
     5 N3          47.3220   -48.3980    -1.9540 N.pl3        1 FAY600   0.0000
     6 C4          47.0730   -48.2520    -0.6180 C.2          1 FAY600   0.0000
     7 O4          47.3170   -49.2140     0.1120 O.2          1 FAY600   0.0000
     8 N5          46.9850   -46.7850     1.2620 N.2          1 FAY600   0.0000
     9 C6          46.9390   -45.3830     3.1650 C.ar         1 FAY600   0.0000
    10 C7          47.1950   -44.1500     3.7600 C.ar         1 FAY600   0.0000
    11 C8          47.5620   -43.0870     2.9530 C.ar         1 FAY600   0.0000
    12 O8          48.4100   -40.9070     2.9290 O.2          1 FAY600   0.0000
    13 C9          47.4450   -43.1930     1.5610 C.ar         1 FAY600   0.0000
    14 PA          52.0450   -37.4210    -1.6450 P.3          1 FAY600   0.0000
    15 C1'         47.2670   -43.3470    -1.3650 C.3          1 FAY600   0.0000
    16 C10         47.0120   -45.8520    -0.9490 C.2          1 FAY600   0.0000
    17 N10         47.1040   -44.5540    -0.4390 N.pl3        1 FAY600   0.0000
    18 N1A         56.3360   -27.9930     1.9330 N.ar         1 FAY600   0.0000
    19 O1A         51.5340   -37.3080    -0.2310 O.co2        1 FAY600   0.0000
    20 C1B         55.2060   -32.9090     0.4130 C.3          1 FAY600   0.0000
    21 O1P         52.1120   -37.7360    -4.8380 O.co2        1 FAY600   0.0000
    22 C2'         48.6850   -43.3230    -1.9600 C.3          1 FAY600   0.0000
    23 O2'         49.5670   -43.6130    -0.9060 O.3          1 FAY600   0.0000
    24 C2A         57.2050   -29.0000     1.5730 C.ar         1 FAY600   0.0000
    25 O2A         52.5600   -38.8190    -1.9170 O.co2        1 FAY600  -1.0000
    26 C2B         54.7500   -34.0400     1.3130 C.3          1 FAY600   0.0000
    27 O2B         55.5730   -34.1600     2.4530 O.3          1 FAY600   0.0000
    28 O2P         49.6920   -37.1650    -4.8810 O.co2        1 FAY600  -1.0000
    29 C3'         49.2820   -42.0880    -2.6990 C.3          1 FAY600   0.0000
    30 O3'         50.5680   -41.7350    -2.2020 O.3          1 FAY600   0.0000
    31 N3A         56.7370   -30.2440     1.1970 N.ar         1 FAY600   0.0000
    32 C3B         54.8810   -35.2240     0.3660 C.3          1 FAY600   0.0000
    33 O3B         56.2010   -35.7660     0.4210 O.3          1 FAY600   0.0000
    34 O3P         50.9470   -37.0230    -2.7210 O.3          1 FAY600   0.0000
    35 C4'         48.4760   -40.8150    -2.6910 C.3          1 FAY600   0.0000
    36 O4'         47.1580   -41.2560    -2.9730 O.3          1 FAY600   0.0000
    37 C4A         55.4100   -30.4830     1.1900 C.ar         1 FAY600   0.0000
    38 C4B         54.6100   -34.6280    -1.0190 C.3          1 FAY600   0.0000
    39 O4B         54.7030   -33.2280    -0.8840 O.3          1 FAY600   0.0000
    40 C4X         46.9500   -46.9580    -0.1010 C.2          1 FAY600   0.0000
    41 C5'         49.0240   -39.7750    -3.7140 C.3          1 FAY600   0.0000
    42 O5'         50.3870   -39.3350    -3.6220 O.3          1 FAY600   0.0000
    43 C5A         54.5180   -29.4780     1.5470 C.ar         1 FAY600   0.0000
    44 C5B         53.2330   -35.0000    -1.5750 C.3          1 FAY600   0.0000
    45 O5B         53.2330   -36.3720    -1.9190 O.3          1 FAY600   0.0000
    46 C5X         46.9250   -45.5150     1.7780 C.ar         1 FAY600   0.0000
    47 C6A         54.9840   -28.2230     1.9230 C.ar         1 FAY600   0.0000
    48 N6A         54.1580   -27.2410     2.2870 N.pl3        1 FAY600   0.0000
    49 N7A         53.2770   -29.9980     1.4350 N.2          1 FAY600   0.0000
    50 C7M         47.4150   -44.0780     5.2450 C.3          1 FAY600   0.0000
    51 C8A         53.3600   -31.2820     1.0160 C.2          1 FAY600   0.0000
    52 C8M         48.2020   -41.9080     3.5760 C.2          1 FAY600   0.0000
    53 C9A         47.2010   -44.4210     0.9490 C.ar         1 FAY600   0.0000
    54 N9A         54.6780   -31.6060     0.8700 N.pl3        1 FAY600   0.0000
    55 H1          47.7020   -49.2527    -2.3077 H            1 FAY600   0.0000
    56 H2          46.7633   -46.1824     3.7396 H            1 FAY600   0.0000
    57 H3          47.5382   -42.3729     0.9965 H            1 FAY600   0.0000
    58 H1'1        47.1130   -42.5075    -0.8439 H            1 FAY600   0.0000
    59 H1'2        46.5985   -43.4065    -2.1063 H            1 FAY600   0.0000
    60 H1B         56.2053   -32.8786     0.3893 H            1 FAY600   0.0000
    61 H2'         48.7400   -44.0913    -2.5977 H            1 FAY600   0.0000
    62 H8          50.4426   -43.1585    -1.0695 H            1 FAY600   0.0000
    63 H2A         58.1899   -28.8275     1.5841 H            1 FAY600   0.0000
    64 H2B         53.7956   -33.9105     1.5820 H            1 FAY600   0.0000
    65 H11         56.4999   -33.8594     2.2281 H            1 FAY600   0.0000
    66 H3'         49.4017   -42.3511    -3.6563 H            1 FAY600   0.0000
    67 H13         51.2385   -41.7923    -2.9417 H            1 FAY600   0.0000
    68 H3B         54.2034   -35.9260     0.5852 H            1 FAY600   0.0000
    69 H15         56.8612   -35.0634     0.1553 H            1 FAY600   0.0000
    70 H4'         48.4998   -40.4172    -1.7738 H            1 FAY600   0.0000
    71 H17         47.1421   -41.7110    -3.8634 H            1 FAY600   0.0000
    72 H4B         55.3152   -34.9429    -1.6543 H            1 FAY600   0.0000
    73 H5'1        48.4504   -38.9598    -3.6338 H            1 FAY600   0.0000
    74 H5'2        48.9095   -40.1750    -4.6233 H            1 FAY600   0.0000
    75 H5B1        53.0394   -34.4502    -2.3876 H            1 FAY600   0.0000
    76 H5B2        52.5333   -34.8278    -0.8816 H            1 FAY600   0.0000
    77 H6A1        53.1696   -27.3926     2.2851 H            1 FAY600   0.0000
    78 H6A2        54.5272   -26.3532     2.5618 H            1 FAY600   0.0000
    79 H7M1        47.5849   -43.1292     5.5112 H            1 FAY600   0.0000
    80 H7M2        46.6024   -44.4168     5.7192 H            1 FAY600   0.0000
    81 H7M3        48.2041   -44.6401     5.4927 H            1 FAY600   0.0000
    82 H8A         52.5861   -31.8910     0.8425 H            1 FAY600   0.0000
    83 H8M         48.4651   -41.9385     4.5403 H            1 FAY600   0.0000
@<TRIPOS>BOND
     1    1   21      ar
     2    1   28      ar
     3    1   34       1
     4    1   42       1
     5    2    3       1
     6    2   16       2
     7    3    4       2
     8    3    5       1
     9    5    6       1
    10    6    7       2
    11    6   40       1
    12    8   40       2
    13    8   46       1
    14    9   10      ar
    15    9   46      ar
    16   10   11      ar
    17   10   50       1
    18   11   13      ar
    19   11   52       1
    20   12   52       2
    21   13   53      ar
    22   14   19      ar
    23   14   25      ar
    24   14   34       1
    25   14   45       1
    26   15   17       1
    27   15   22       1
    28   16   17       1
    29   16   40       1
    30   17   53       1
    31   18   24      ar
    32   18   47      ar
    33   20   26       1
    34   20   39       1
    35   20   54       1
    36   22   23       1
    37   22   29       1
    38   24   31      ar
    39   26   27       1
    40   26   32       1
    41   29   30       1
    42   29   35       1
    43   31   37      ar
    44   32   33       1
    45   32   38       1
    46   35   36       1
    47   35   41       1
    48   37   43      ar
    49   37   54       1
    50   38   39       1
    51   38   44       1
    52   41   42       1
    53   43   47      ar
    54   43   49       1
    55   44   45       1
    56   46   53      ar
    57   47   48       1
    58   49   51       2
    59   51   54       1
    60    5   55       1
    61    9   56       1
    62   13   57       1
    63   15   58       1
    64   15   59       1
    65   52   83       1
    66   20   60       1
    67   51   82       1
    68   22   61       1
    69   23   62       1
    70   24   63       1
    71   26   64       1
    72   27   65       1
    73   29   66       1
    74   30   67       1
    75   32   68       1
    76   33   69       1
    77   35   70       1
    78   36   71       1
    79   38   72       1
    80   41   73       1
    81   41   74       1
    82   44   75       1
    83   44   76       1
    84   48   77       1
    85   48   78       1
    86   50   79       1
    87   50   80       1
    88   50   81       1
@<TRIPOS>SUBSTRUCTURE
     1 FAY600      1 GROUP             4 B     FAY     0 **** FAY B 600
