@<TRIPOS>MOLECULE
4cmf_PXG_1_ligand
   39    40     1     0     0
SMALL
NO_CHARGES


@<TRIPOS>ATOM
     1 N1         -19.2590   -42.4800   -14.9680 N.ar         1 PXG1323   0.0000
     2 C2         -20.2360   -42.6370   -15.8840 C.ar         1 PXG1323   0.0000
     3 C2A        -21.5980   -43.1610   -15.4400 C.3          1 PXG1323   0.0000
     4 C3         -19.9750   -42.3310   -17.3030 C.ar         1 PXG1323   0.0000
     5 O3         -20.9170   -42.4600   -18.2720 O.3          1 PXG1323   0.0000
     6 C5         -17.6740   -41.6760   -16.5820 C.ar         1 PXG1323   0.0000
     7 C6         -18.0160   -42.0110   -15.2680 C.ar         1 PXG1323   0.0000
     8 C5A        -16.2760   -41.1750   -16.9180 C.3          1 PXG1323   0.0000
     9 OP4        -15.5510   -42.3180   -17.4140 O.3          1 PXG1323   0.0000
    10 P          -14.2350   -42.1160   -18.3430 P.3          1 PXG1323   0.0000
    11 OP1        -14.6550   -41.5380   -19.6730 O.co2        1 PXG1323   0.0000
    12 OP2        -13.6490   -43.5090   -18.4390 O.co2        1 PXG1323  -1.0000
    13 OP3        -13.3560   -41.1650   -17.5360 O.co2        1 PXG1323  -1.0000
    14 C4         -18.6480   -41.8210   -17.6540 C.ar         1 PXG1323   0.0000
    15 C4A        -18.2240   -41.4040   -19.0420 C.3          1 PXG1323   0.0000
    16 C8         -19.6080   -40.9470   -23.5250 C.ar         1 PXG1323   0.0000
    17 C9         -19.7710   -41.4830   -22.2540 C.ar         1 PXG1323   0.0000
    18 C10        -18.6910   -41.5320   -21.3900 C.ar         1 PXG1323   0.0000
    19 C11        -17.4490   -41.0480   -21.8060 C.ar         1 PXG1323   0.0000
    20 C12        -17.2600   -40.5050   -23.0750 C.ar         1 PXG1323   0.0000
    21 C13        -18.3610   -40.4570   -23.9260 C.ar         1 PXG1323   0.0000
    22 N9         -18.8430   -42.0760   -20.1370 N.pl3        1 PXG1323   0.0000
    23 C7         -20.8290   -40.8930   -24.3910 C.2          1 PXG1323   0.0000
    24 O2         -21.3880   -39.7800   -24.5650 O.co2        1 PXG1323   0.0000
    25 O8         -21.2660   -41.9580   -24.8830 O.co2        1 PXG1323  -1.0000
    26 H2A1       -22.2067   -43.2197   -16.2312 H            1 PXG1323   0.0000
    27 H2A2       -21.4899   -44.0687   -15.0345 H            1 PXG1323   0.0000
    28 H2A3       -21.9903   -42.5381   -14.7632 H            1 PXG1323   0.0000
    29 H4         -20.6914   -42.2400   -19.2211 H            1 PXG1323   0.0000
    30 H5         -17.3393   -41.9048   -14.5394 H            1 PXG1323   0.0000
    31 H5A1       -15.8318   -40.8105   -16.0996 H            1 PXG1323   0.0000
    32 H5A2       -16.3215   -40.4623   -17.6180 H            1 PXG1323   0.0000
    33 H4A1       -17.2380   -41.5543   -19.1142 H            1 PXG1323   0.0000
    34 H4A2       -18.4203   -40.4281   -19.1370 H            1 PXG1323   0.0000
    35 H10        -20.6628   -41.8312   -21.9652 H            1 PXG1323   0.0000
    36 H11        -16.6739   -41.0924   -21.1757 H            1 PXG1323   0.0000
    37 H12        -16.3662   -40.1622   -23.3641 H            1 PXG1323   0.0000
    38 H13        -18.2583   -40.0651   -24.8403 H            1 PXG1323   0.0000
    39 H14        -19.3698   -42.9146   -19.9979 H            1 PXG1323   0.0000
@<TRIPOS>BOND
     1    1    2      ar
     2    1    7      ar
     3    2    3       1
     4    2    4      ar
     5    4    5       1
     6    4   14      ar
     7    6    7      ar
     8    6    8       1
     9    6   14      ar
    10    8    9       1
    11    9   10       1
    12   10   11      ar
    13   10   12      ar
    14   10   13      ar
    15   14   15       1
    16   15   22       1
    17   16   17      ar
    18   16   21      ar
    19   16   23       1
    20   17   18      ar
    21   18   19      ar
    22   18   22       1
    23   19   20      ar
    24   20   21      ar
    25   23   24      ar
    26   23   25      ar
    27    3   26       1
    28    3   27       1
    29    3   28       1
    30    5   29       1
    31    7   30       1
    32    8   31       1
    33    8   32       1
    34   21   38       1
    35   22   39       1
    36   15   33       1
    37   15   34       1
    38   17   35       1
    39   19   36       1
    40   20   37       1
@<TRIPOS>SUBSTRUCTURE
     1 PXG1323     1 GROUP             4 A     PXG     0 **** PXG A1323
