@<TRIPOS>MOLECULE
4iqg_NAP_2_ligand
   73    77     1     0     0
SMALL
NO_CHARGES


@<TRIPOS>ATOM
     1 PA          62.1360    18.2770    75.5960 P.3          1 NAP301   0.0000
     2 O1A         61.6430    17.2040    76.5290 O.co2        1 NAP301   0.0000
     3 O2A         63.3860    18.1380    74.7940 O.co2        1 NAP301  -1.0000
     4 O5B         62.1240    19.7360    76.1770 O.3          1 NAP301   0.0000
     5 C5B         61.1030    20.1590    77.0660 C.3          1 NAP301   0.0000
     6 C4B         61.2180    21.6170    77.2810 C.3          1 NAP301   0.0000
     7 O4B         59.9350    21.9660    77.7730 O.3          1 NAP301   0.0000
     8 C3B         62.1900    21.9690    78.4360 C.3          1 NAP301   0.0000
     9 O3B         62.5000    23.3060    78.2650 O.3          1 NAP301   0.0000
    10 C2B         61.3520    21.8650    79.6890 C.3          1 NAP301   0.0000
    11 O2B         61.7450    22.6710    80.8270 O.3          1 NAP301   0.0000
    12 C1B         59.9940    22.4400    79.1340 C.3          1 NAP301   0.0000
    13 N9A         58.8120    22.1490    79.9880 N.pl3        1 NAP301   0.0000
    14 C8A         58.2930    20.9770    80.3360 C.2          1 NAP301   0.0000
    15 N7A         57.2120    21.0680    81.1550 N.2          1 NAP301   0.0000
    16 C5A         57.0500    22.3830    81.2780 C.ar         1 NAP301   0.0000
    17 C6A         56.1100    23.2190    82.0250 C.ar         1 NAP301   0.0000
    18 N6A         55.1250    22.5880    82.7250 N.pl3        1 NAP301   0.0000
    19 N1A         56.1980    24.5410    81.9380 N.ar         1 NAP301   0.0000
    20 C2A         57.2040    25.1290    81.1990 C.ar         1 NAP301   0.0000
    21 N3A         58.1150    24.4270    80.5180 N.ar         1 NAP301   0.0000
    22 C4A         58.1030    23.0860    80.5260 C.ar         1 NAP301   0.0000
    23 O3          60.9440    18.4910    74.4670 O.3          1 NAP301   0.0000
    24 PN          61.0820    18.5430    72.8960 P.3          1 NAP301   0.0000
    25 O1N         61.8890    19.7760    72.4900 O.co2        1 NAP301   0.0000
    26 O2N         61.1910    17.2150    72.2040 O.co2        1 NAP301  -1.0000
    27 O5D         59.5250    19.0510    72.7570 O.3          1 NAP301   0.0000
    28 C5D         59.1900    20.3690    72.4810 C.3          1 NAP301   0.0000
    29 C4D         57.7300    20.4710    71.9670 C.3          1 NAP301   0.0000
    30 O4D         57.7370    19.8050    70.7220 O.3          1 NAP301   0.0000
    31 C3D         56.6880    19.7580    72.8310 C.3          1 NAP301   0.0000
    32 O3D         55.4610    20.5690    72.8040 O.3          1 NAP301   0.0000
    33 C2D         56.5460    18.4040    72.1750 C.3          1 NAP301   0.0000
    34 O2D         55.2310    17.8130    72.4130 O.3          1 NAP301   0.0000
    35 C1D         56.7160    18.8010    70.7070 C.3          1 NAP301   0.0000
    36 N1N         57.0590    17.6840    69.8860 N.ar         1 NAP301   1.0000
    37 C2N         58.2670    17.0060    70.0490 C.ar         1 NAP301   0.0000
    38 C3N         58.5480    15.9730    69.1780 C.ar         1 NAP301   0.0000
    39 C7N         59.8380    15.2020    69.2970 C.2          1 NAP301   0.0000
    40 O7N         59.9963    14.1225    68.6706 O.2          1 NAP301   0.0000
    41 N7N         60.7344    15.7539    70.0190 N.am         1 NAP301   0.0000
    42 C4N         57.6060    15.5870    68.1570 C.ar         1 NAP301   0.0000
    43 C5N         56.4160    16.2940    68.0220 C.ar         1 NAP301   0.0000
    44 C6N         56.2010    17.3550    68.8750 C.ar         1 NAP301   0.0000
    45 P2B         62.9860    22.1100    81.7430 P.3          1 NAP301   0.0000
    46 O1X         64.1780    22.1670    80.8470 O.co2        1 NAP301   0.0000
    47 O2X         62.8860    23.0100    82.9660 O.co2        1 NAP301  -1.0000
    48 O3X         62.7940    20.7100    81.9230 O.co2        1 NAP301  -1.0000
    49 H5B1        61.2024    19.6833    77.9400 H            1 NAP301   0.0000
    50 H5B2        60.2083    19.9487    76.6719 H            1 NAP301   0.0000
    51 H4B         61.4432    22.1051    76.4378 H            1 NAP301   0.0000
    52 H3B         62.9986    21.3810    78.4579 H            1 NAP301   0.0000
    53 H5          63.1296    23.5970    78.9854 H            1 NAP301   0.0000
    54 H2B         61.2428    20.9083    79.9587 H            1 NAP301   0.0000
    55 H1B         60.0903    23.4346    79.0948 H            1 NAP301   0.0000
    56 H8A         58.6653    20.1034    80.0226 H            1 NAP301   0.0000
    57 H6A1        54.4623    23.1233    83.2487 H            1 NAP301   0.0000
    58 H6A2        55.0652    21.5898    82.7148 H            1 NAP301   0.0000
    59 H2A         57.2538    26.1274    81.1716 H            1 NAP301   0.0000
    60 H5D1        59.8094    20.7249    71.7813 H            1 NAP301   0.0000
    61 H5D2        59.2824    20.9123    73.3155 H            1 NAP301   0.0000
    62 H4D         57.4755    21.4300    71.8425 H            1 NAP301   0.0000
    63 H3D         57.0206    19.6587    73.7688 H            1 NAP301   0.0000
    64 H16         55.4016    21.0547    71.9319 H            1 NAP301   0.0000
    65 H2D         57.2757    17.7855    72.4665 H            1 NAP301   0.0000
    66 H18         55.0899    17.6989    73.3964 H            1 NAP301   0.0000
    67 H1D         55.8634    19.2040    70.3745 H            1 NAP301   0.0000
    68 H2N         58.9083    17.2600    70.7731 H            1 NAP301   0.0000
    69 H7N1        61.6461    15.3480    70.0814 H            1 NAP301   0.0000
    70 H7N2        60.5248    16.5923    70.5223 H            1 NAP301   0.0000
    71 H4N         57.8066    14.8173    67.5510 H            1 NAP301   0.0000
    72 H5N         55.7398    16.0413    67.3300 H            1 NAP301   0.0000
    73 H6N         55.3788    17.9098    68.7480 H            1 NAP301   0.0000
@<TRIPOS>BOND
     1    1    2      ar
     2    1    3      ar
     3    1    4       1
     4    1   23       1
     5    4    5       1
     6    5    6       1
     7    6    7       1
     8    6    8       1
     9    7   12       1
    10    8    9       1
    11    8   10       1
    12   10   11       1
    13   10   12       1
    14   11   45       1
    15   12   13       1
    16   13   14       1
    17   13   22       1
    18   14   15       2
    19   15   16       1
    20   16   17      ar
    21   16   22      ar
    22   17   18       1
    23   17   19      ar
    24   19   20      ar
    25   20   21      ar
    26   21   22      ar
    27   23   24       1
    28   24   25      ar
    29   24   26      ar
    30   24   27       1
    31   27   28       1
    32   28   29       1
    33   29   30       1
    34   29   31       1
    35   30   35       1
    36   31   32       1
    37   31   33       1
    38   33   34       1
    39   33   35       1
    40   35   36       1
    41   36   37      ar
    42   36   44      ar
    43   37   38      ar
    44   38   39       1
    45   38   42      ar
    46   39   40       2
    47   39   41      am
    48   42   43      ar
    49   43   44      ar
    50   45   46      ar
    51   45   47      ar
    52   45   48      ar
    53   43   72       1
    54    5   49       1
    55    5   50       1
    56    6   51       1
    57    8   52       1
    58    9   53       1
    59   10   54       1
    60   12   55       1
    61   14   56       1
    62   18   57       1
    63   18   58       1
    64   20   59       1
    65   44   73       1
    66   28   60       1
    67   28   61       1
    68   29   62       1
    69   31   63       1
    70   32   64       1
    71   33   65       1
    72   34   66       1
    73   35   67       1
    74   37   68       1
    75   41   69       1
    76   41   70       1
    77   42   71       1
@<TRIPOS>SUBSTRUCTURE
     1 NAP301      1 GROUP             4 B     NAP     0 **** NAP B 301
