@<TRIPOS>MOLECULE
4jym_KKN_1_ligand
   17    18     1     0     0
SMALL
NO_CHARGES


@<TRIPOS>ATOM
     1 O01         88.8790   -54.0540   -28.3900 O.2          1 KKN301   0.0000
     2 C02         88.3840   -53.0320   -27.5110 C.2          1 KKN301   0.0000
     3 C03         87.1510   -53.3350   -26.7030 C.2          1 KKN301   0.0000
     4 C04         86.5020   -54.5870   -26.8080 C.2          1 KKN301   0.0000
     5 C05         86.9990   -55.6180   -27.6920 C.2          1 KKN301   0.0000
     6 C06         88.2090   -55.3270   -28.4870 C.2          1 KKN301   0.0000
     7 C07         85.3570   -54.6130   -25.9320 C.2          1 KKN301   0.0000
     8 C08         85.3420   -53.3060   -25.2840 C.2          1 KKN301   0.0000
     9 O09         84.5340   -52.9070   -24.4620 O.2          1 KKN301   0.0000
    10 O10         86.4870   -52.4570   -25.7610 O.2          1 KKN301   0.0000
    11 C11         84.3960   -55.7410   -25.7340 C.3          1 KKN301   0.0000
    12 H1          88.8440   -52.1471   -27.4381 H            1 KKN301   0.0000
    13 H2          86.5369   -56.5020   -27.7628 H            1 KKN301   0.0000
    14 H3          88.5704   -56.0259   -29.1042 H            1 KKN301   0.0000
    15 H4          83.7018   -55.4740   -25.0656 H            1 KKN301   0.0000
    16 H5          83.9543   -55.9593   -26.6042 H            1 KKN301   0.0000
    17 H6          84.8891   -56.5442   -25.3998 H            1 KKN301   0.0000
@<TRIPOS>BOND
     1    1    2       1
     2    1    6       1
     3    2    3       2
     4    3    4       1
     5    3   10       1
     6    4    5       1
     7    4    7       2
     8    5    6       2
     9    7    8       1
    10    7   11       1
    11    8    9       2
    12    8   10       1
    13    2   12       1
    14    5   13       1
    15    6   14       1
    16   11   15       1
    17   11   16       1
    18   11   17       1
@<TRIPOS>SUBSTRUCTURE
     1 KKN301      1 GROUP             4 A     KKN     0 **** KKN A 301
