@<TRIPOS>MOLECULE
5c1p_ADP_1_ligand
   39    41     1     0     0
SMALL
NO_CHARGES


@<TRIPOS>ATOM
     1 PB           7.1090     6.3780   -74.5070 P.3          1 ADP401   0.0000
     2 O1B          7.2620     5.7060   -75.8710 O.co2        1 ADP401   0.0000
     3 O2B          5.7160     6.6860   -73.9620 O.co2        1 ADP401  -1.0000
     4 O3B          7.9310     5.6520   -73.4600 O.co2        1 ADP401  -1.0000
     5 PA           7.4190     9.2560   -75.4070 P.3          1 ADP401   0.0000
     6 O1A          7.3150     9.1620   -76.9240 O.co2        1 ADP401   0.0000
     7 O2A          8.3810    10.2900   -74.8460 O.co2        1 ADP401  -1.0000
     8 O3A          7.8610     7.8280   -74.7090 O.3          1 ADP401   0.0000
     9 O5'          5.9410     9.5730   -74.7980 O.3          1 ADP401   0.0000
    10 C5'          4.7230     9.0360   -75.3330 C.3          1 ADP401   0.0000
    11 C4'          3.8260    10.1140   -75.9500 C.3          1 ADP401   0.0000
    12 O4'          3.6680    11.2120   -75.0470 O.3          1 ADP401   0.0000
    13 C3'          4.3220    10.7490   -77.2460 C.3          1 ADP401   0.0000
    14 O3'          4.1440     9.9350   -78.4120 O.3          1 ADP401   0.0000
    15 C2'          3.5090    12.0280   -77.2300 C.3          1 ADP401   0.0000
    16 O2'          2.1300    11.8460   -77.5600 O.3          1 ADP401   0.0000
    17 C1'          3.4950    12.4110   -75.7770 C.3          1 ADP401   0.0000
    18 N9           4.5850    13.3060   -75.3510 N.pl3        1 ADP401   0.0000
    19 C8           5.8330    12.9490   -74.9700 C.2          1 ADP401   0.0000
    20 N7           6.5470    14.0260   -74.5720 N.2          1 ADP401   0.0000
    21 C5           5.7600    15.1050   -74.6930 C.ar         1 ADP401   0.0000
    22 C6           5.8930    16.5570   -74.4480 C.ar         1 ADP401   0.0000
    23 N6           7.0740    17.0760   -73.9910 N.pl3        1 ADP401   0.0000
    24 N1           4.7600    17.3150   -74.7150 N.ar         1 ADP401   0.0000
    25 C2           3.5880    16.7960   -75.1780 C.ar         1 ADP401   0.0000
    26 N3           3.3980    15.4810   -75.4210 N.ar         1 ADP401   0.0000
    27 C4           4.4330    14.6150   -75.1940 C.ar         1 ADP401   0.0000
    28 H5'1         4.2206     8.5846   -74.5955 H            1 ADP401   0.0000
    29 H5'2         4.9512     8.3661   -76.0395 H            1 ADP401   0.0000
    30 H4'          2.9252     9.7143   -76.1201 H            1 ADP401   0.0000
    31 H3'          5.2912    10.9757   -77.1497 H            1 ADP401   0.0000
    32 H5           4.0151    10.5216   -79.2116 H            1 ADP401   0.0000
    33 H2'          3.9308    12.7385   -77.7932 H            1 ADP401   0.0000
    34 H7           2.0082    11.9419   -78.5479 H            1 ADP401   0.0000
    35 H1'          2.6129    12.8214   -75.5457 H            1 ADP401   0.0000
    36 H9           6.1816    12.0118   -74.9812 H            1 ADP401   0.0000
    37 H10          7.1580    18.0589   -73.8271 H            1 ADP401   0.0000
    38 H11          7.8529    16.4723   -73.8210 H            1 ADP401   0.0000
    39 H12          2.8274    17.4228   -75.3470 H            1 ADP401   0.0000
@<TRIPOS>BOND
     1    1    2      ar
     2    1    3      ar
     3    1    4      ar
     4    1    8       1
     5    5    6      ar
     6    5    7      ar
     7    5    8       1
     8    5    9       1
     9    9   10       1
    10   10   11       1
    11   11   12       1
    12   11   13       1
    13   12   17       1
    14   13   14       1
    15   13   15       1
    16   15   16       1
    17   15   17       1
    18   17   18       1
    19   18   19       1
    20   18   27       1
    21   19   20       2
    22   20   21       1
    23   21   22      ar
    24   21   27      ar
    25   22   23       1
    26   22   24      ar
    27   24   25      ar
    28   25   26      ar
    29   26   27      ar
    30   25   39       1
    31   23   38       1
    32   23   37       1
    33   10   28       1
    34   10   29       1
    35   11   30       1
    36   13   31       1
    37   14   32       1
    38   15   33       1
    39   16   34       1
    40   17   35       1
    41   19   36       1
@<TRIPOS>SUBSTRUCTURE
     1 ADP401      1 GROUP             4 B     ADP     0 **** ADP B 401
