@<TRIPOS>MOLECULE
2fb3_5AD_1_ligand
   28    30     1     0     0
SMALL
NO_CHARGES


@<TRIPOS>ATOM
     1 N1          16.0090    63.5870    20.5410 N.ar         1 5AD501   0.0000
     2 C2          17.1380    63.4410    19.8220 C.ar         1 5AD501   0.0000
     3 N3          17.4200    64.2340    18.7780 N.ar         1 5AD501   0.0000
     4 C4          16.5750    65.2370    18.4160 C.ar         1 5AD501   0.0000
     5 N9          16.6040    66.1590    17.4230 N.pl3        1 5AD501   0.0000
     6 C8          15.4980    66.9270    17.5370 C.2          1 5AD501   0.0000
     7 N7          14.7570    66.4750    18.5870 N.2          1 5AD501   0.0000
     8 C5          15.4030    65.4190    19.1500 C.ar         1 5AD501   0.0000
     9 C6          15.1310    64.5680    20.2350 C.ar         1 5AD501   0.0000
    10 N6          14.0100    64.6960    20.9960 N.pl3        1 5AD501   0.0000
    11 C1'         17.6740    66.3390    16.3890 C.3          1 5AD501   0.0000
    12 C2'         17.4070    65.7160    15.0020 C.3          1 5AD501   0.0000
    13 C3'         17.8200    66.7790    14.0260 C.3          1 5AD501   0.0000
    14 C4'         18.3380    67.9300    14.8750 C.3          1 5AD501   0.0000
    15 O4'         17.8170    67.7490    16.1830 O.3          1 5AD501   0.0000
    16 O2'         18.3340    64.6720    14.6370 O.3          1 5AD501   0.0000
    17 O3'         18.9490    66.2590    13.2890 O.3          1 5AD501   0.0000
    18 H1          17.7845    62.7208    20.0736 H            1 5AD501   0.0000
    19 H2          15.2623    67.6998    16.9477 H            1 5AD501   0.0000
    20 H3          13.3451    65.4139    20.7899 H            1 5AD501   0.0000
    21 H4          13.8512    64.0722    21.7613 H            1 5AD501   0.0000
    22 H1'         18.5341    65.9754    16.7468 H            1 5AD501   0.0000
    23 H2'         16.4534    65.4388    14.8846 H            1 5AD501   0.0000
    24 H3'         17.0696    67.0567    13.4261 H            1 5AD501   0.0000
    25 H4'1        18.0254    68.8021    14.4986 H            1 5AD501   0.0000
    26 H4'2        19.3376    67.9164    14.8987 H            1 5AD501   0.0000
    27 H10         19.2628    65.0421    14.6196 H            1 5AD501   0.0000
    28 H11         18.9564    66.6520    12.3695 H            1 5AD501   0.0000
@<TRIPOS>BOND
     1    1    2      ar
     2    1    9      ar
     3    2    3      ar
     4    3    4      ar
     5    4    5       1
     6    4    8      ar
     7    5    6       1
     8    5   11       1
     9    6    7       2
    10    7    8       1
    11    8    9      ar
    12    9   10       1
    13   11   12       1
    14   11   15       1
    15   12   13       1
    16   12   16       1
    17   13   14       1
    18   13   17       1
    19   14   15       1
    20    2   18       1
    21    6   19       1
    22   10   20       1
    23   10   21       1
    24   11   22       1
    25   12   23       1
    26   13   24       1
    27   14   25       1
    28   14   26       1
    29   16   27       1
    30   17   28       1
@<TRIPOS>SUBSTRUCTURE
     1 5AD501      1 GROUP             4 A     5AD     0 **** 5AD A 501
