@<TRIPOS>MOLECULE
2vbd_V10_1_ligand
   44    43     1     0     0
SMALL
NO_CHARGES


@<TRIPOS>ATOM
     1 O           18.2700    36.3540     6.3650 O.co2        1 V101333   0.0000
     2 C           17.2820    36.2440     5.5770 C.2          1 V101333   0.0000
     3 OXT         17.3780    35.9620     4.3610 O.co2        1 V101333  -1.0000
     4 CA          15.8720    36.4190     6.0700 C.3          1 V101333   0.0000
     5 N           15.7330    36.4790     7.5280 N.4          1 V101333   1.0000
     6 CB          15.3040    37.6740     5.4010 C.3          1 V101333   0.0000
     7 CAJ         13.8720    37.9380     5.9590 C.3          1 V101333   0.0000
     8 CAL         13.3720    39.2310     5.3310 C.3          1 V101333   0.0000
     9 CAT         12.0080    39.6730     5.7290 C.2          1 V101333   0.0000
    10 OAE         11.7470    40.0200     6.8800 O.2          1 V101333   0.0000
    11 NAO         11.0950    39.6690     4.7520 N.am         1 V101333   0.0000
    12 CAW          9.7440    40.1290     5.1430 C.3          1 V101333   0.0000
    13 CAK          9.1330    40.7910     3.9150 C.3          1 V101333   0.0000
    14 SAI          9.3020    39.7380     2.4410 S.3          1 V101333  -1.0000
    15 CAU          8.9190    38.9770     5.6160 C.2          1 V101333   0.0000
    16 OAF          9.3660    37.8580     5.8310 O.2          1 V101333   0.0000
    17 OAP          7.5520    39.3000     5.8070 O.3          1 V101333   0.0000
    18 CAX          6.6860    38.3860     6.4180 C.3          1 V101333   0.0000
    19 CAS          5.5880    38.0840     5.4510 C.2          1 V101333   0.0000
    20 OAD          4.6010    37.4040     5.8570 O.co2        1 V101333   0.0000
    21 OAH          5.7220    38.5350     4.2910 O.co2        1 V101333  -1.0000
    22 CAN          6.0980    39.1220     7.6020 C.3          1 V101333   0.0000
    23 SAQ          7.2020    39.2320     8.9380 S.3          1 V101333   0.0000
    24 CAA          7.9640    37.6230     9.2140 C.3          1 V101333   0.0000
    25 HA          15.3393    35.6367     5.7472 H            1 V101333   0.0000
    26 H2          15.8077    37.4290     7.8311 H            1 V101333   0.0000
    27 H3          14.8407    36.1137     7.7931 H            1 V101333   0.0000
    28 HB1         15.2588    37.5360     4.4116 H            1 V101333   0.0000
    29 HB2         15.8924    38.4572     5.6018 H            1 V101333   0.0000
    30 HAJ1        13.9044    38.0312     6.9541 H            1 V101333   0.0000
    31 HAJ2        13.2649    37.1819     5.7146 H            1 V101333   0.0000
    32 HAL1        13.3751    39.1088     4.3385 H            1 V101333   0.0000
    33 HAL2        14.0123    39.9578     5.5794 H            1 V101333   0.0000
    34 HAO         11.3105    39.3752     3.8207 H            1 V101333   0.0000
    35 HAW          9.8234    40.8030     5.8774 H            1 V101333   0.0000
    36 HAK1         9.5979    41.6606     3.7488 H            1 V101333   0.0000
    37 HAK2         8.1621    40.9593     4.0852 H            1 V101333   0.0000
    38 HAX          7.1663    37.5559     6.7014 H            1 V101333   0.0000
    39 HAN1         5.2771    38.6375     7.9043 H            1 V101333   0.0000
    40 HAN2         5.8517    40.0472     7.3134 H            1 V101333   0.0000
    41 HAA1         8.6005    37.6831     9.9830 H            1 V101333   0.0000
    42 HAA2         7.2545    36.9492     9.4204 H            1 V101333   0.0000
    43 HAA3         8.4600    37.3436     8.3918 H            1 V101333   0.0000
    44 H20         16.4558    35.9352     7.9544 H            1 V101333   0.0000
@<TRIPOS>BOND
     1    1    2      ar
     2    2    3      ar
     3    2    4       1
     4    4    5       1
     5    4    6       1
     6    6    7       1
     7    7    8       1
     8    8    9       1
     9    9   10       2
    10    9   11      am
    11   11   12       1
    12   12   13       1
    13   12   15       1
    14   13   14       1
    15   15   16       2
    16   15   17       1
    17   17   18       1
    18   18   19       1
    19   18   22       1
    20   19   20      ar
    21   19   21      ar
    22   22   23       1
    23   23   24       1
    24   24   43       1
    25    4   25       1
    26    5   26       1
    27    5   27       1
    28    6   28       1
    29    6   29       1
    30    7   30       1
    31    7   31       1
    32    8   32       1
    33    8   33       1
    34   11   34       1
    35   12   35       1
    36   13   36       1
    37   13   37       1
    38   24   42       1
    39   18   38       1
    40    5   44       1
    41   22   39       1
    42   22   40       1
    43   24   41       1
@<TRIPOS>SUBSTRUCTURE
     1 V101333     1 GROUP             4 A     V10     0 **** V10 A1333
