@<TRIPOS>MOLECULE
3s6a_ANP_1_ligand
   41    43     1     0     0
SMALL
NO_CHARGES


@<TRIPOS>ATOM
     1 PB         -21.3030    71.9540    -3.8330 P.3          1 ANP300   0.0000
     2 O1B        -21.3750    73.1880    -2.9560 O.co2        1 ANP300   0.0000
     3 O2B        -20.5630    70.7030    -3.3250 O.co2        1 ANP300  -1.0000
     4 N3B        -20.5300    72.5540    -5.2850 N.3          1 ANP300   0.0000
     5 PA         -23.7700    70.6430    -3.2280 P.3          1 ANP300   0.0000
     6 O1A        -23.5880    71.0650    -1.7940 O.co2        1 ANP300   0.0000
     7 O2A        -25.1920    70.6210    -3.7790 O.co2        1 ANP300  -1.0000
     8 O3A        -22.8300    71.5070    -4.2160 O.3          1 ANP300   0.0000
     9 O5'        -23.2940    69.1140    -3.4220 O.3          1 ANP300   0.0000
    10 C5'        -23.3590    68.5140    -4.7190 C.3          1 ANP300   0.0000
    11 C4'        -23.5580    67.0120    -4.6140 C.3          1 ANP300   0.0000
    12 O4'        -24.9580    66.7410    -4.4690 O.3          1 ANP300   0.0000
    13 C3'        -23.1360    66.2290    -5.8550 C.3          1 ANP300   0.0000
    14 O3'        -21.7460    65.9190    -5.9090 O.3          1 ANP300   0.0000
    15 C2'        -24.0190    65.0060    -5.7380 C.3          1 ANP300   0.0000
    16 O2'        -23.5070    64.1060    -4.7520 O.3          1 ANP300   0.0000
    17 C1'        -25.3080    65.5300    -5.1480 C.3          1 ANP300   0.0000
    18 N9         -26.3600    65.9010    -6.1120 N.pl3        1 ANP300   0.0000
    19 C8         -26.2790    66.7580    -7.1570 C.2          1 ANP300   0.0000
    20 N7         -27.4890    66.8600    -7.7720 N.2          1 ANP300   0.0000
    21 C5         -28.3610    66.0580    -7.1100 C.ar         1 ANP300   0.0000
    22 C6         -29.7930    65.7030    -7.2150 C.ar         1 ANP300   0.0000
    23 N6         -30.6070    66.2180    -8.1950 N.pl3        1 ANP300   0.0000
    24 N1         -30.2760    64.8470    -6.2920 N.ar         1 ANP300   0.0000
    25 C2         -29.5310    64.3140    -5.3150 C.ar         1 ANP300   0.0000
    26 N3         -28.2360    64.5950    -5.1550 N.ar         1 ANP300   0.0000
    27 C4         -27.6160    65.4450    -6.0090 C.ar         1 ANP300   0.0000
    28 H3B1       -20.7629    73.5181    -5.4126 H            1 ANP300   0.0000
    29 H3B2       -19.5383    72.4593    -5.1981 H            1 ANP300   0.0000
    30 H5'1       -22.5059    68.6976    -5.2074 H            1 ANP300   0.0000
    31 H5'2       -24.1248    68.9108    -5.2250 H            1 ANP300   0.0000
    32 H4'        -23.0657    66.6645    -3.8159 H            1 ANP300   0.0000
    33 H3'        -23.3916    66.7439    -6.6732 H            1 ANP300   0.0000
    34 H7         -21.2581    66.6559    -6.3769 H            1 ANP300   0.0000
    35 H2'        -24.1623    64.5578    -6.6204 H            1 ANP300   0.0000
    36 H9         -22.5858    63.8161    -5.0116 H            1 ANP300   0.0000
    37 H1'        -25.6710    64.8688    -4.4915 H            1 ANP300   0.0000
    38 H11        -25.4513    67.2448    -7.4362 H            1 ANP300   0.0000
    39 H12        -31.5708    65.9544    -8.2340 H            1 ANP300   0.0000
    40 H13        -30.2355    66.8564    -8.8692 H            1 ANP300   0.0000
    41 H14        -29.9641    63.6773    -4.6771 H            1 ANP300   0.0000
@<TRIPOS>BOND
     1    1    2      ar
     2    1    3      ar
     3    1    4       1
     4    1    8       1
     5    5    6      ar
     6    5    7      ar
     7    5    8       1
     8    5    9       1
     9    9   10       1
    10   10   11       1
    11   11   12       1
    12   11   13       1
    13   12   17       1
    14   13   14       1
    15   13   15       1
    16   15   16       1
    17   15   17       1
    18   17   18       1
    19   18   19       1
    20   18   27       1
    21   19   20       2
    22   20   21       1
    23   21   22      ar
    24   21   27      ar
    25   22   23       1
    26   22   24      ar
    27   24   25      ar
    28   25   26      ar
    29   26   27      ar
    30   25   41       1
    31    4   28       1
    32    4   29       1
    33   23   40       1
    34   10   30       1
    35   10   31       1
    36   11   32       1
    37   13   33       1
    38   14   34       1
    39   15   35       1
    40   16   36       1
    41   17   37       1
    42   19   38       1
    43   23   39       1
@<TRIPOS>SUBSTRUCTURE
     1 ANP300      1 GROUP             4 A     ANP     0 **** ANP A 300
