@<TRIPOS>MOLECULE
3gd3_FAD_2_ligand
   84    89     1     0     0
SMALL
NO_CHARGES


@<TRIPOS>ATOM
     1 PA           5.6120    15.5720    62.7260 P.3          1 FAD1611   0.0000
     2 O1A          4.3540    15.4060    63.5520 O.co2        1 FAD1611   0.0000
     3 O2A          5.5990    15.5790    61.2070 O.co2        1 FAD1611  -1.0000
     4 O5B          6.5540    14.3850    63.2480 O.3          1 FAD1611   0.0000
     5 C5B          6.2360    13.8330    64.5170 C.3          1 FAD1611   0.0000
     6 C4B          6.2900    12.3120    64.5480 C.3          1 FAD1611   0.0000
     7 O4B          6.8360    11.9500    65.8170 O.3          1 FAD1611   0.0000
     8 C3B          4.9090    11.6690    64.4840 C.3          1 FAD1611   0.0000
     9 O3B          4.8880    10.6810    63.4470 O.3          1 FAD1611   0.0000
    10 C2B          4.7060    11.0390    65.8540 C.3          1 FAD1611   0.0000
    11 O2B          4.1000     9.7550    65.7920 O.3          1 FAD1611   0.0000
    12 C1B          6.1130    10.8490    66.3510 C.3          1 FAD1611   0.0000
    13 N9A          6.2300    10.8410    67.8190 N.pl3        1 FAD1611   0.0000
    14 C8A          5.7720    11.7780    68.6550 C.2          1 FAD1611   0.0000
    15 N7A          6.0760    11.4750    69.9400 N.2          1 FAD1611   0.0000
    16 C5A          6.7480    10.3140    69.9350 C.ar         1 FAD1611   0.0000
    17 C6A          7.3110     9.5010    70.9040 C.ar         1 FAD1611   0.0000
    18 N6A          7.2370     9.8380    72.2130 N.pl3        1 FAD1611   0.0000
    19 N1A          7.9360     8.3680    70.5080 N.ar         1 FAD1611   0.0000
    20 C2A          8.0190     8.0180    69.2090 C.ar         1 FAD1611   0.0000
    21 N3A          7.4930     8.7680    68.2250 N.ar         1 FAD1611   0.0000
    22 C4A          6.8550     9.9050    68.5250 C.ar         1 FAD1611   0.0000
    23 N1           3.1560    23.6190    56.4970 N.2          1 FAD1611   0.0000
    24 C2           3.4240    24.4180    55.4370 C.2          1 FAD1611   0.0000
    25 O2           4.3440    25.2610    55.4910 O.2          1 FAD1611   0.0000
    26 N3           2.7020    24.3110    54.3090 N.pl3        1 FAD1611   0.0000
    27 C4           1.7040    23.3990    54.2320 C.2          1 FAD1611   0.0000
    28 O4           1.0400    23.3010    53.1810 O.2          1 FAD1611   0.0000
    29 C4X          1.3990    22.5640    55.2910 C.2          1 FAD1611   0.0000
    30 N5           0.3960    21.6680    55.1670 N.2          1 FAD1611   0.0000
    31 C5X          0.1260    20.8570    56.1910 C.ar         1 FAD1611   0.0000
    32 C6          -0.7350    19.9530    56.3410 C.ar         1 FAD1611   0.0000
    33 C7          -1.2700    19.0650    57.0730 C.ar         1 FAD1611   0.0000
    34 C7M         -2.4210    18.1600    56.6850 C.3          1 FAD1611   0.0000
    35 C8          -0.5900    19.0900    58.3050 C.ar         1 FAD1611   0.0000
    36 C8M         -0.9560    18.1530    59.4240 C.3          1 FAD1611   0.0000
    37 C9           0.4740    20.0100    58.4980 C.ar         1 FAD1611   0.0000
    38 C9A          0.8680    20.9100    57.4830 C.ar         1 FAD1611   0.0000
    39 N10          1.9070    21.8630    57.5780 N.pl3        1 FAD1611   0.0000
    40 C10          2.1650    22.6910    56.4530 C.2          1 FAD1611   0.0000
    41 C1'          2.7150    22.0030    58.7880 C.3          1 FAD1611   0.0000
    42 C2'          4.0030    21.1920    58.6510 C.3          1 FAD1611   0.0000
    43 O2'          3.7940    20.0750    57.8000 O.3          1 FAD1611   0.0000
    44 C3'          4.4640    20.6870    60.0060 C.3          1 FAD1611   0.0000
    45 O3'          4.7820    21.8350    60.8150 O.3          1 FAD1611   0.0000
    46 C4'          5.6950    19.8050    59.8780 C.3          1 FAD1611   0.0000
    47 O4'          5.4200    18.7360    58.9770 O.3          1 FAD1611   0.0000
    48 C5'          6.0810    19.2480    61.2460 C.3          1 FAD1611   0.0000
    49 O5'          6.9680    18.1590    61.0840 O.3          1 FAD1611   0.0000
    50 P            7.5960    17.4720    62.3670 P.3          1 FAD1611   0.0000
    51 O1P          8.3450    16.2700    61.8700 O.co2        1 FAD1611   0.0000
    52 O2P          8.3050    18.5290    63.1790 O.co2        1 FAD1611  -1.0000
    53 O3P          6.3310    16.9340    63.1870 O.3          1 FAD1611   0.0000
    54 H5B1         5.3115    14.1221    64.7653 H            1 FAD1611   0.0000
    55 H5B2         6.8874    14.1866    65.1883 H            1 FAD1611   0.0000
    56 H4B          6.8691    11.9686    63.8086 H            1 FAD1611   0.0000
    57 H3B          4.2103    12.3641    64.3149 H            1 FAD1611   0.0000
    58 H5           4.6719     9.7880    63.8417 H            1 FAD1611   0.0000
    59 H2B          4.1921    11.6494    66.4568 H            1 FAD1611   0.0000
    60 H7           3.5616     9.6001    66.6204 H            1 FAD1611   0.0000
    61 H1B          6.4841     9.9966    65.9826 H            1 FAD1611   0.0000
    62 H8A          5.2710    12.5950    68.3696 H            1 FAD1611   0.0000
    63 H6A1         7.6466     9.2447    72.9060 H            1 FAD1611   0.0000
    64 H6A2         6.7728    10.6803    72.4870 H            1 FAD1611   0.0000
    65 H2A          8.4893     7.1690    68.9683 H            1 FAD1611   0.0000
    66 H13          2.9011    24.9033    53.5283 H            1 FAD1611   0.0000
    67 H14         -1.2333    19.9166    55.4748 H            1 FAD1611   0.0000
    68 H7M1        -2.6424    17.5556    57.4503 H            1 FAD1611   0.0000
    69 H7M2        -3.2203    18.7162    56.4574 H            1 FAD1611   0.0000
    70 H7M3        -2.1602    17.6107    55.8911 H            1 FAD1611   0.0000
    71 H8M1        -0.3624    18.3248    60.2102 H            1 FAD1611   0.0000
    72 H8M2        -1.9090    18.3037    59.6867 H            1 FAD1611   0.0000
    73 H8M3        -0.8398    17.2078    59.1188 H            1 FAD1611   0.0000
    74 H21          0.9563    20.0211    59.3739 H            1 FAD1611   0.0000
    75 H1'1         2.1951    21.6690    59.5742 H            1 FAD1611   0.0000
    76 H1'2         2.9432    22.9670    58.9244 H            1 FAD1611   0.0000
    77 H2'          4.7157    21.7735    58.2587 H            1 FAD1611   0.0000
    78 H25          4.3988    19.3279    58.0759 H            1 FAD1611   0.0000
    79 H3'          3.7257    20.1688    60.4377 H            1 FAD1611   0.0000
    80 H27          4.6139    21.6215    61.7774 H            1 FAD1611   0.0000
    81 H4'          6.4532    20.3496    59.5195 H            1 FAD1611   0.0000
    82 H29          6.2295    18.1550    58.8921 H            1 FAD1611   0.0000
    83 H5'1         5.2584    18.9386    61.7231 H            1 FAD1611   0.0000
    84 H5'2         6.5280    19.9639    61.7823 H            1 FAD1611   0.0000
@<TRIPOS>BOND
     1    1    2      ar
     2    1    3      ar
     3    1    4       1
     4    1   53       1
     5    4    5       1
     6    5    6       1
     7    6    7       1
     8    6    8       1
     9    7   12       1
    10    8    9       1
    11    8   10       1
    12   10   11       1
    13   10   12       1
    14   12   13       1
    15   13   14       1
    16   13   22       1
    17   14   15       2
    18   15   16       1
    19   16   17      ar
    20   16   22      ar
    21   17   18       1
    22   17   19      ar
    23   19   20      ar
    24   20   21      ar
    25   21   22      ar
    26   23   24       1
    27   23   40       2
    28   24   25       2
    29   24   26       1
    30   26   27       1
    31   27   28       2
    32   27   29       1
    33   29   30       2
    34   29   40       1
    35   30   31       1
    36   31   32      ar
    37   31   38      ar
    38   32   33      ar
    39   33   34       1
    40   33   35      ar
    41   35   36       1
    42   35   37      ar
    43   37   38      ar
    44   38   39       1
    45   39   40       1
    46   39   41       1
    47   41   42       1
    48   42   43       1
    49   42   44       1
    50   44   45       1
    51   44   46       1
    52   46   47       1
    53   46   48       1
    54   48   49       1
    55   49   50       1
    56   50   51      ar
    57   50   52      ar
    58   50   53       1
    59   48   84       1
    60    5   54       1
    61    5   55       1
    62    6   56       1
    63    8   57       1
    64    9   58       1
    65   10   59       1
    66   11   60       1
    67   12   61       1
    68   14   62       1
    69   18   63       1
    70   18   64       1
    71   20   65       1
    72   26   66       1
    73   32   67       1
    74   34   68       1
    75   34   69       1
    76   34   70       1
    77   36   71       1
    78   36   72       1
    79   36   73       1
    80   37   74       1
    81   41   75       1
    82   41   76       1
    83   42   77       1
    84   43   78       1
    85   44   79       1
    86   45   80       1
    87   46   81       1
    88   47   82       1
    89   48   83       1
@<TRIPOS>SUBSTRUCTURE
     1 FAD1611     1 GROUP             4 A     FAD     0 **** FAD A1611
