@<TRIPOS>MOLECULE
1e8h_ADP_2_ligand
   39    41     1     0     0
SMALL
NO_CHARGES


@<TRIPOS>ATOM
     1 PB          92.3990    35.5210    36.3320 P.3          1 ADP600   0.0000
     2 O1B         92.7110    34.4690    37.5380 O.co2        1 ADP600   0.0000
     3 O2B         93.5040    36.4660    36.1280 O.co2        1 ADP600  -1.0000
     4 O3B         92.0020    34.9400    34.9960 O.co2        1 ADP600  -1.0000
     5 PA          90.3150    37.6150    36.7660 P.3          1 ADP600   0.0000
     6 O1A         89.8070    37.7610    35.3590 O.co2        1 ADP600   0.0000
     7 O2A         91.2090    38.7670    36.9430 O.co2        1 ADP600  -1.0000
     8 O3A         91.0620    36.2050    36.9490 O.3          1 ADP600   0.0000
     9 O5'         88.9780    37.5780    37.5800 O.3          1 ADP600   0.0000
    10 C5'         88.7590    37.1680    38.9130 C.3          1 ADP600   0.0000
    11 C4'         88.0670    38.2780    39.6670 C.3          1 ADP600   0.0000
    12 O4'         89.0840    39.1440    40.2010 O.3          1 ADP600   0.0000
    13 C3'         87.1250    39.1640    38.8610 C.3          1 ADP600   0.0000
    14 O3'         85.8040    38.5920    38.8170 O.3          1 ADP600   0.0000
    15 C2'         87.1210    40.4190    39.7720 C.3          1 ADP600   0.0000
    16 O2'         86.2740    40.1080    40.9150 O.3          1 ADP600   0.0000
    17 C1'         88.5350    40.4000    40.3530 C.3          1 ADP600   0.0000
    18 N9          89.3870    41.4670    39.9170 N.pl3        1 ADP600   0.0000
    19 C8          90.3770    41.3350    39.0060 C.2          1 ADP600   0.0000
    20 N7          91.0870    42.3510    38.7720 N.2          1 ADP600   0.0000
    21 C5          90.5880    43.2370    39.5920 C.ar         1 ADP600   0.0000
    22 C6          91.0180    44.5220    39.7410 C.ar         1 ADP600   0.0000
    23 N6          92.0340    45.0060    39.0440 N.pl3        1 ADP600   0.0000
    24 N1          90.3290    45.2400    40.6380 N.ar         1 ADP600   0.0000
    25 C2          89.2770    44.6730    41.3310 C.ar         1 ADP600   0.0000
    26 N3          88.7940    43.4400    41.2610 N.ar         1 ADP600   0.0000
    27 C4          89.5270    42.7720    40.3420 C.ar         1 ADP600   0.0000
    28 H5'1        89.6358    36.9640    39.3484 H            1 ADP600   0.0000
    29 H5'2        88.1845    36.3496    38.9210 H            1 ADP600   0.0000
    30 H4'         87.5564    37.8776    40.4279 H            1 ADP600   0.0000
    31 H3'         87.4815    39.3615    37.9478 H            1 ADP600   0.0000
    32 H5          85.8705    37.5954    38.8666 H            1 ADP600   0.0000
    33 H2'         86.8811    41.2681    39.3013 H            1 ADP600   0.0000
    34 H7          85.5639    39.4609    40.6374 H            1 ADP600   0.0000
    35 H1'         88.4238    40.5287    41.3384 H            1 ADP600   0.0000
    36 H9          90.5399    40.4671    38.5367 H            1 ADP600   0.0000
    37 H10         92.3251    45.9534    39.1767 H            1 ADP600   0.0000
    38 H11         92.5104    44.4242    38.3848 H            1 ADP600   0.0000
    39 H12         88.8136    45.2788    41.9777 H            1 ADP600   0.0000
@<TRIPOS>BOND
     1    1    2      ar
     2    1    3      ar
     3    1    4      ar
     4    1    8       1
     5    5    6      ar
     6    5    7      ar
     7    5    8       1
     8    5    9       1
     9    9   10       1
    10   10   11       1
    11   11   12       1
    12   11   13       1
    13   12   17       1
    14   13   14       1
    15   13   15       1
    16   15   16       1
    17   15   17       1
    18   17   18       1
    19   18   19       1
    20   18   27       1
    21   19   20       2
    22   20   21       1
    23   21   22      ar
    24   21   27      ar
    25   22   23       1
    26   22   24      ar
    27   24   25      ar
    28   25   26      ar
    29   26   27      ar
    30   25   39       1
    31   23   38       1
    32   23   37       1
    33   10   28       1
    34   10   29       1
    35   11   30       1
    36   13   31       1
    37   14   32       1
    38   15   33       1
    39   16   34       1
    40   17   35       1
    41   19   36       1
@<TRIPOS>SUBSTRUCTURE
     1 ADP600      1 GROUP             4 B     ADP     0 **** ADP B 600
