@<TRIPOS>MOLECULE
3fr8_NDP_1_ligand
   73    77     1     0     0
SMALL
NO_CHARGES


@<TRIPOS>ATOM
     1 PA          21.2290    30.2260    63.1820 P.3          1 NDP601   0.0000
     2 O1A         19.8520    30.8080    63.4030 O.co2        1 NDP601   0.0000
     3 O2A         21.6020    28.9150    63.8370 O.co2        1 NDP601  -1.0000
     4 O5B         22.3200    31.3510    63.5580 O.3          1 NDP601   0.0000
     5 C5B         23.3880    31.0770    64.4620 C.3          1 NDP601   0.0000
     6 C4B         24.6920    31.6580    63.9260 C.3          1 NDP601   0.0000
     7 O4B         24.5430    33.0560    63.6370 O.3          1 NDP601   0.0000
     8 C3B         25.7920    31.5230    64.9680 C.3          1 NDP601   0.0000
     9 O3B         26.9760    30.9880    64.3660 O.3          1 NDP601   0.0000
    10 C2B         26.0410    32.9400    65.4480 C.3          1 NDP601   0.0000
    11 O2B         27.4120    33.1750    65.7680 O.3          1 NDP601   0.0000
    12 C1B         25.5850    33.7980    64.2780 C.3          1 NDP601   0.0000
    13 N9A         25.1320    35.1390    64.7350 N.pl3        1 NDP601   0.0000
    14 C8A         24.1880    35.3950    65.6550 C.2          1 NDP601   0.0000
    15 N7A         24.0640    36.7330    65.8020 N.2          1 NDP601   0.0000
    16 C5A         24.9410    37.3180    64.9620 C.ar         1 NDP601   0.0000
    17 C6A         25.2610    38.6420    64.6780 C.ar         1 NDP601   0.0000
    18 N6A         24.6170    39.6480    65.3170 N.pl3        1 NDP601   0.0000
    19 N1A         26.2150    38.9150    63.7550 N.ar         1 NDP601   0.0000
    20 C2A         26.8540    37.9200    63.1170 C.ar         1 NDP601   0.0000
    21 N3A         26.5670    36.6340    63.3790 N.ar         1 NDP601   0.0000
    22 C4A         25.6110    36.3070    64.2900 C.ar         1 NDP601   0.0000
    23 O3          21.4720    30.0770    61.5980 O.3          1 NDP601   0.0000
    24 PN          20.5330    29.1420    60.6850 P.3          1 NDP601   0.0000
    25 O1N         21.4120    28.1890    59.9170 O.co2        1 NDP601   0.0000
    26 O2N         19.3990    28.6020    61.5220 O.co2        1 NDP601  -1.0000
    27 O5D         19.9190    30.2130    59.6570 O.3          1 NDP601   0.0000
    28 C5D         20.6150    30.6560    58.4930 C.3          1 NDP601   0.0000
    29 C4D         19.5890    31.0870    57.4480 C.3          1 NDP601   0.0000
    30 O4D         19.1150    29.9340    56.7410 O.3          1 NDP601   0.0000
    31 C3D         18.3760    31.7480    58.0900 C.3          1 NDP601   0.0000
    32 O3D         18.0260    32.9170    57.3440 O.3          1 NDP601   0.0000
    33 C2D         17.2730    30.7060    58.0160 C.3          1 NDP601   0.0000
    34 O2D         15.9940    31.3090    57.8080 O.3          1 NDP601   0.0000
    35 C1D         17.6900    29.8200    56.8470 C.3          1 NDP601   0.0000
    36 N1N         17.2900    28.4120    56.9880 N.ar         1 NDP601   1.0000
    37 C2N         17.4490    27.7400    58.1460 C.ar         1 NDP601   0.0000
    38 C3N         17.0630    26.4000    58.2520 C.ar         1 NDP601   0.0000
    39 C7N         17.2330    25.6400    59.5410 C.2          1 NDP601   0.0000
    40 O7N         16.7480    24.5240    59.6520 O.2          1 NDP601   0.0000
    41 N7N         17.9130    26.1930    60.5430 N.am         1 NDP601   0.0000
    42 C4N         16.5150    25.7620    57.1400 C.ar         1 NDP601   0.0000
    43 C5N         16.3650    26.4730    55.9540 C.ar         1 NDP601   0.0000
    44 C6N         16.7670    27.8060    55.9080 C.ar         1 NDP601   0.0000
    45 P2B         28.0600    32.6870    67.1630 P.3          1 NDP601   0.0000
    46 O1X         26.8990    32.3380    68.0670 O.co2        1 NDP601   0.0000
    47 O2X         28.8550    33.8870    67.6220 O.co2        1 NDP601  -1.0000
    48 O3X         28.9010    31.5020    66.7500 O.co2        1 NDP601  -1.0000
    49 H5B1        23.4859    30.0874    64.5678 H            1 NDP601   0.0000
    50 H5B2        23.1832    31.4885    65.3501 H            1 NDP601   0.0000
    51 H4B         24.9580    31.1711    63.0940 H            1 NDP601   0.0000
    52 H3B         25.4899    30.9435    65.7249 H            1 NDP601   0.0000
    53 H5          27.7808    31.3346    64.8479 H            1 NDP601   0.0000
    54 H2B         25.4711    33.1300    66.2474 H            1 NDP601   0.0000
    55 H1B         26.3462    33.9105    63.6393 H            1 NDP601   0.0000
    56 H8A         23.6608    34.7058    66.1521 H            1 NDP601   0.0000
    57 H6A1        24.8478    40.5992    65.1121 H            1 NDP601   0.0000
    58 H6A2        23.9108    39.4394    65.9936 H            1 NDP601   0.0000
    59 H2A         27.5535    38.1400    62.4371 H            1 NDP601   0.0000
    60 H5D1        21.1732    29.9101    58.1297 H            1 NDP601   0.0000
    61 H5D2        21.2038    31.4298    58.7264 H            1 NDP601   0.0000
    62 H4D         20.0145    31.7227    56.8039 H            1 NDP601   0.0000
    63 H3D         18.5698    31.9854    59.0419 H            1 NDP601   0.0000
    64 H16         17.6105    33.5906    57.9553 H            1 NDP601   0.0000
    65 H2D         17.2596    30.1683    58.8590 H            1 NDP601   0.0000
    66 H18         15.9834    32.2194    58.2217 H            1 NDP601   0.0000
    67 H1D         17.2796    30.1841    56.0109 H            1 NDP601   0.0000
    68 H2N         17.8470    28.2045    58.9371 H            1 NDP601   0.0000
    69 H7N1        18.0305    25.6952    61.4023 H            1 NDP601   0.0000
    70 H7N2        18.3063    27.1062    60.4364 H            1 NDP601   0.0000
    71 H4N         16.2330    24.8041    57.1945 H            1 NDP601   0.0000
    72 H5N         15.9740    26.0333    55.1454 H            1 NDP601   0.0000
    73 H6N         16.6648    28.3210    55.0569 H            1 NDP601   0.0000
@<TRIPOS>BOND
     1    1    2      ar
     2    1    3      ar
     3    1    4       1
     4    1   23       1
     5    4    5       1
     6    5    6       1
     7    6    7       1
     8    6    8       1
     9    7   12       1
    10    8    9       1
    11    8   10       1
    12   10   11       1
    13   10   12       1
    14   11   45       1
    15   12   13       1
    16   13   14       1
    17   13   22       1
    18   14   15       2
    19   15   16       1
    20   16   17      ar
    21   16   22      ar
    22   17   18       1
    23   17   19      ar
    24   19   20      ar
    25   20   21      ar
    26   21   22      ar
    27   23   24       1
    28   24   25      ar
    29   24   26      ar
    30   24   27       1
    31   27   28       1
    32   28   29       1
    33   29   30       1
    34   29   31       1
    35   30   35       1
    36   31   32       1
    37   31   33       1
    38   33   34       1
    39   33   35       1
    40   35   36       1
    41   36   37      ar
    42   36   44      ar
    43   37   38      ar
    44   38   39       1
    45   38   42      ar
    46   39   40       2
    47   39   41      am
    48   42   43      ar
    49   43   44      ar
    50   45   46      ar
    51   45   47      ar
    52   45   48      ar
    53   43   72       1
    54    5   49       1
    55    5   50       1
    56    6   51       1
    57    8   52       1
    58    9   53       1
    59   10   54       1
    60   12   55       1
    61   14   56       1
    62   18   57       1
    63   18   58       1
    64   20   59       1
    65   44   73       1
    66   28   60       1
    67   28   61       1
    68   29   62       1
    69   31   63       1
    70   32   64       1
    71   33   65       1
    72   34   66       1
    73   35   67       1
    74   37   68       1
    75   41   69       1
    76   41   70       1
    77   42   71       1
@<TRIPOS>SUBSTRUCTURE
     1 NDP601      1 GROUP             4 A     NDP     0 **** NDP A 601
