@<TRIPOS>MOLECULE
4wm7_W11_1_ligand
   47    49     1     0     0
SMALL
NO_CHARGES


@<TRIPOS>ATOM
     1 O1         -38.2450    -5.8960   121.7690 O.2          1 W11301   0.0000
     2 N2         -37.2220    -6.6450   122.4100 N.2          1 W11301   0.0000
     3 C3         -36.5610    -5.7860   123.1920 C.2          1 W11301   0.0000
     4 CM3        -35.3690    -6.1670   124.0770 C.3          1 W11301   0.0000
     5 C4         -37.0820    -4.5560   123.0950 C.2          1 W11301   0.0000
     6 C5         -38.0980    -4.6110   122.2410 C.2          1 W11301   0.0000
     7 C1C        -38.9580    -3.4160   121.8540 C.3          1 W11301   0.0000
     8 C2C        -40.4050    -3.5670   122.3450 C.3          1 W11301   0.0000
     9 C3C        -41.1370    -2.3110   121.9080 C.3          1 W11301   0.0000
    10 O1B        -42.5360    -2.3370   122.3140 O.3          1 W11301   0.0000
    11 C1B        -43.2190    -1.3190   123.0610 C.3          1 W11301   0.0000
    12 C2B        -43.0910     0.0240   122.4320 C.2          1 W11301   0.0000
    13 CM2        -41.8730     0.6830   122.1680 C.3          1 W11301   0.0000
    14 C3B        -44.2510     0.8050   122.1590 C.2          1 W11301   0.0000
    15 C4B        -45.5590     0.3430   122.4810 C.2          1 W11301   0.0000
    16 C5B        -45.7160    -0.9410   123.1010 C.2          1 W11301   0.0000
    17 C6B        -44.5630    -1.7530   123.3850 C.2          1 W11301   0.0000
    18 CM6        -44.7910    -2.9950   123.9920 C.3          1 W11301   0.0000
    19 C2A        -46.6350     1.1230   122.1900 C.2          1 W11301   0.0000
    20 N1A        -47.8980     0.8520   122.5430 N.pl3        1 W11301   0.0000
    21 N3A        -46.5780     2.2770   121.4980 N.2          1 W11301   0.0000
    22 C3A        -47.8180     2.7610   121.3990 C.2          1 W11301   0.0000
    23 CM4        -48.2480     4.0550   120.6950 C.3          1 W11301   0.0000
    24 O1A        -48.6870     1.9080   122.0370 O.3          1 W11301   0.0000
    25 F1         -48.9980     3.7700   119.6290 F            1 W11301   0.0000
    26 F2         -48.9590     4.7960   121.5340 F            1 W11301   0.0000
    27 F3         -47.1780     4.7330   120.3030 F            1 W11301   0.0000
    28 HM31       -35.0448    -5.3573   124.5662 H            1 W11301   0.0000
    29 HM32       -35.6524    -6.8635   124.7362 H            1 W11301   0.0000
    30 HM33       -34.6321    -6.5287   123.5060 H            1 W11301   0.0000
    31 H4         -36.7630    -3.7413   123.5792 H            1 W11301   0.0000
    32 H1C1       -38.9622    -3.3302   120.8577 H            1 W11301   0.0000
    33 H1C2       -38.5643    -2.5903   122.2580 H            1 W11301   0.0000
    34 H2C1       -40.4255    -3.6507   123.3413 H            1 W11301   0.0000
    35 H2C2       -40.8276    -4.3747   121.9338 H            1 W11301   0.0000
    36 H3C1       -41.0895    -2.2377   120.9118 H            1 W11301   0.0000
    37 H3C2       -40.6936    -1.5162   122.3223 H            1 W11301   0.0000
    38 H1B        -42.7371    -1.2555   123.9349 H            1 W11301   0.0000
    39 HM21       -42.0586     1.5688   121.7427 H            1 W11301   0.0000
    40 HM22       -41.3767     0.8221   123.0249 H            1 W11301   0.0000
    41 HM23       -41.3197     0.1255   121.5491 H            1 W11301   0.0000
    42 H3B        -44.1438     1.7018   121.7297 H            1 W11301   0.0000
    43 H5B        -46.6296    -1.2726   123.3365 H            1 W11301   0.0000
    44 HM61       -45.7724    -3.1196   124.1377 H            1 W11301   0.0000
    45 HM62       -44.4468    -3.7236   123.3999 H            1 W11301   0.0000
    46 HM63       -44.3165    -3.0282   124.8716 H            1 W11301   0.0000
    47 H1A        -48.2186     0.0595   123.0617 H            1 W11301   0.0000
@<TRIPOS>BOND
     1    1    2       1
     2    1    6       1
     3    2    3       2
     4    3    4       1
     5    3    5       1
     6    5    6       2
     7    6    7       1
     8    7    8       1
     9    8    9       1
    10    9   10       1
    11   10   11       1
    12   11   12       1
    13   11   17       1
    14   12   13       1
    15   12   14       2
    16   14   15       1
    17   15   16       1
    18   15   19       2
    19   16   17       2
    20   17   18       1
    21   19   20       1
    22   19   21       1
    23   20   24       1
    24   21   22       2
    25   22   23       1
    26   22   24       1
    27   23   25       1
    28   23   26       1
    29   23   27       1
    30    4   28       1
    31    4   29       1
    32    4   30       1
    33    5   31       1
    34    7   32       1
    35    7   33       1
    36    8   34       1
    37    8   35       1
    38    9   36       1
    39    9   37       1
    40   11   38       1
    41   13   39       1
    42   13   40       1
    43   13   41       1
    44   14   42       1
    45   16   43       1
    46   18   44       1
    47   18   45       1
    48   18   46       1
    49   20   47       1
@<TRIPOS>SUBSTRUCTURE
     1 W11301      1 GROUP             4 A     W11     0 **** W11 A 301
