@<TRIPOS>MOLECULE
3occ_DIH_2_ligand
   36    38     1     0     0
SMALL
NO_CHARGES


@<TRIPOS>ATOM
     1 O5'         46.2870    23.6060    65.6060 O.3          1 DIH500   0.0000
     2 C5'         46.0310    22.4620    64.7520 C.3          1 DIH500   0.0000
     3 C4'         44.8850    21.6050    65.3060 C.3          1 DIH500   0.0000
     4 C6'         43.5970    22.4150    65.5150 C.3          1 DIH500   0.0000
     5 C3'         44.5380    20.4950    64.3270 C.3          1 DIH500   0.0000
     6 O3'         43.8760    19.4250    65.0370 O.3          1 DIH500   0.0000
     7 C2'         43.4780    21.0870    63.3990 C.3          1 DIH500   0.0000
     8 N1'         42.9000    22.1040    64.2780 N.4          1 DIH500   1.0000
     9 C10         41.9360    23.0480    63.7420 C.3          1 DIH500   0.0000
    10 C9          42.6480    24.3310    63.3520 C.2          1 DIH500   0.0000
    11 C8          42.5550    25.5510    64.0260 C.2          1 DIH500   0.0000
    12 N7          43.2280    26.5100    63.3500 N.pl3        1 DIH500   0.0000
    13 C5          43.7460    25.9740    62.2180 C.2          1 DIH500   0.0000
    14 C6          44.5560    26.5080    61.1180 C.2          1 DIH500   0.0000
    15 O6          44.8600    27.7550    61.0900 O.2          1 DIH500   0.0000
    16 N1          44.8960    25.6700    60.1320 N.pl3        1 DIH500   0.0000
    17 C2          44.5370    24.3610    60.1690 C.2          1 DIH500   0.0000
    18 N3          43.7920    23.8190    61.1580 N.2          1 DIH500   0.0000
    19 C4          43.3880    24.6370    62.1900 C.2          1 DIH500   0.0000
    20 H5'         45.6554    23.5913    66.3811 H            1 DIH500   0.0000
    21 H5'1        46.8589    21.9039    64.6966 H            1 DIH500   0.0000
    22 H5'2        45.7850    22.7851    63.8382 H            1 DIH500   0.0000
    23 H4'         45.1659    21.2013    66.1767 H            1 DIH500   0.0000
    24 H6'1        43.7837    23.3937    65.5998 H            1 DIH500   0.0000
    25 H6'2        43.0878    22.1021    66.3167 H            1 DIH500   0.0000
    26 H3'         45.3401    20.1728    63.8243 H            1 DIH500   0.0000
    27 H8          44.0734    18.5541    64.5869 H            1 DIH500   0.0000
    28 H2'1        42.8001    20.4036    63.1280 H            1 DIH500   0.0000
    29 H2'2        43.8869    21.4933    62.5818 H            1 DIH500   0.0000
    30 H11         41.2442    23.2482    64.4357 H            1 DIH500   0.0000
    31 H12         41.4952    22.6530    62.9360 H            1 DIH500   0.0000
    32 H13         42.0621    25.6946    64.8842 H            1 DIH500   0.0000
    33 H14         43.3275    27.4621    63.6392 H            1 DIH500   0.0000
    34 H15         45.4233    26.0134    59.3548 H            1 DIH500   0.0000
    35 H16         44.8401    23.7660    59.4246 H            1 DIH500   0.0000
    36 H1'         42.2227    21.4988    64.6964 H            1 DIH500   0.0000
@<TRIPOS>BOND
     1    1    2       1
     2    2    3       1
     3    3    4       1
     4    3    5       1
     5    4    8       1
     6    5    6       1
     7    5    7       1
     8    7    8       1
     9    8    9       1
    10    9   10       1
    11   10   11       2
    12   10   19       1
    13   11   12       1
    14   12   13       1
    15   13   14       1
    16   13   19       2
    17   14   15       2
    18   14   16       1
    19   16   17       1
    20   17   18       2
    21   18   19       1
    22    1   20       1
    23    2   21       1
    24    2   22       1
    25    3   23       1
    26    4   24       1
    27    4   25       1
    28    5   26       1
    29    6   27       1
    30    7   28       1
    31    7   29       1
    32    9   30       1
    33    9   31       1
    34   11   32       1
    35   12   33       1
    36   16   34       1
    37   17   35       1
    38    8   36       1
@<TRIPOS>SUBSTRUCTURE
     1 DIH500      1 GROUP             4 B     DIH     0 **** DIH B 500
