@<TRIPOS>MOLECULE
3sai_9DR_2_ligand
   49    51     1     0     0
SMALL
NO_CHARGES


@<TRIPOS>ATOM
     1 N1          14.2060    -9.5310     9.9460 N.ar         1 9DR163   0.0000
     2 C2          15.0800    -9.4290     8.9210 C.ar         1 9DR163   0.0000
     3 N3          14.6430    -9.2860     7.6600 N.ar         1 9DR163   1.0000
     4 C4          13.3360    -9.2320     7.3750 C.ar         1 9DR163   0.0000
     5 C5          12.4120    -9.3330     8.4150 C.ar         1 9DR163   0.0000
     6 C6          12.8780    -9.4780     9.7230 C.ar         1 9DR163   0.0000
     7 CAA         12.8910   -10.4440     5.2510 C.3          1 9DR163   0.0000
     8 CAB          5.2010    -8.1590     3.6260 C.3          1 9DR163   0.0000
     9 NAC         16.3930    -9.4680     9.1510 N.pl3        1 9DR163   0.0000
    10 NAD         12.0390    -9.5680    10.7490 N.pl3        1 9DR163   0.0000
    11 CAE          9.8270    -9.2140     7.7790 C.1          1 9DR163   0.0000
    12 CAF         11.0150    -9.2710     8.0910 C.1          1 9DR163   0.0000
    13 CAG          9.4030   -14.5420     2.5670 C.ar         1 9DR163   0.0000
    14 CAH          9.7770   -15.0470     4.8110 C.ar         1 9DR163   0.0000
    15 CAI          8.8520   -13.3030     2.8940 C.ar         1 9DR163   0.0000
    16 CAJ          9.2360   -13.8310     5.2090 C.ar         1 9DR163   0.0000
    17 CAK          7.0190    -9.3130     5.3210 C.ar         1 9DR163   0.0000
    18 CAL          8.6020   -11.0760     5.7960 C.ar         1 9DR163   0.0000
    19 CAM          7.2270   -11.1660     3.8050 C.ar         1 9DR163   0.0000
    20 CAN         12.9450    -9.0670     5.9060 C.3          1 9DR163   0.0000
    21 CAO          8.4020    -9.1410     7.4270 C.3          1 9DR163   0.0000
    22 NAP          9.8420   -15.3590     3.5220 N.ar         1 9DR163   0.0000
    23 OAS          5.6780    -9.4760     3.2930 O.3          1 9DR163   0.0000
    24 CAU          8.0090    -9.8660     6.1410 C.ar         1 9DR163   0.0000
    25 CAW          6.6300    -9.9640     4.1440 C.ar         1 9DR163   0.0000
    26 CAX          8.7750   -12.9410     4.2400 C.ar         1 9DR163   0.0000
    27 CAY          8.2140   -11.7230     4.6160 C.ar         1 9DR163   0.0000
    28 HAA1        12.6358   -10.3458     4.2891 H            1 9DR163   0.0000
    29 HAA2        13.7892   -10.8789     5.3148 H            1 9DR163   0.0000
    30 HAA3        12.2126   -11.0097     5.7198 H            1 9DR163   0.0000
    31 HAB1         4.5113    -7.8759     2.9596 H            1 9DR163   0.0000
    32 HAB2         4.7956    -8.1725     4.5400 H            1 9DR163   0.0000
    33 HAB3         5.9649    -7.5138     3.6097 H            1 9DR163   0.0000
    34 HAC1        17.0365    -9.3921     8.3893 H            1 9DR163   0.0000
    35 HAC2        16.7341    -9.5731    10.0851 H            1 9DR163   0.0000
    36 HAD1        11.0520    -9.5296    10.5927 H            1 9DR163   0.0000
    37 HAD2        12.3944    -9.6741    11.6777 H            1 9DR163   0.0000
    38 HAG          9.4687   -14.8186     1.6083 H            1 9DR163   0.0000
    39 HAH         10.1185   -15.6892     5.4972 H            1 9DR163   0.0000
    40 HAI          8.5193   -12.6874     2.1796 H            1 9DR163   0.0000
    41 HAJ          9.1779   -13.5967     6.1794 H            1 9DR163   0.0000
    42 HAK          6.5870    -8.4482     5.5770 H            1 9DR163   0.0000
    43 HAL          9.3003   -11.4810     6.3862 H            1 9DR163   0.0000
    44 HAM          6.9472   -11.6394     2.9698 H            1 9DR163   0.0000
    45 HAN1        13.6239    -8.4999     5.4396 H            1 9DR163   0.0000
    46 HAN2        12.0473    -8.6307     5.8446 H            1 9DR163   0.0000
    47 HAO1         8.1581    -8.1766     7.3248 H            1 9DR163   0.0000
    48 HAO2         7.8772    -9.5397     8.1791 H            1 9DR163   0.0000
    49 H22         15.3086    -9.2183     6.9167 H            1 9DR163   0.0000
@<TRIPOS>BOND
     1    1    2      ar
     2    1    6      ar
     3    2    3      ar
     4    2    9       1
     5    3    4      ar
     6    4    5      ar
     7    4   20       1
     8    5    6      ar
     9    5   12       1
    10    6   10       1
    11    7   20       1
    12    8   23       1
    13   11   12       3
    14   11   21       1
    15   13   15      ar
    16   13   22      ar
    17   14   16      ar
    18   14   22      ar
    19   15   26      ar
    20   16   26      ar
    21   17   24      ar
    22   17   25      ar
    23   18   24      ar
    24   18   27      ar
    25   19   25      ar
    26   19   27      ar
    27   21   24       1
    28   23   25       1
    29   26   27       1
    30    7   28       1
    31    7   29       1
    32    7   30       1
    33    8   31       1
    34    8   32       1
    35    8   33       1
    36    9   34       1
    37    9   35       1
    38   10   36       1
    39   10   37       1
    40   13   38       1
    41   14   39       1
    42   15   40       1
    43   16   41       1
    44   17   42       1
    45   18   43       1
    46   19   44       1
    47   20   45       1
    48   20   46       1
    49   21   47       1
    50   21   48       1
    51    3   49       1
@<TRIPOS>SUBSTRUCTURE
     1 9DR163      1 GROUP             4 B     9DR     0 **** 9DR B 163
