@<TRIPOS>MOLECULE
1xr2_C2F_1_ligand
   56    58     1     0     0
SMALL
NO_CHARGES


@<TRIPOS>ATOM
     1 N1          38.6400    15.7070    21.0440 N.2          1 C2F1200   0.0000
     2 C2          39.8630    15.7940    20.5090 C.2          1 C2F1200   0.0000
     3 NA2         40.2500    16.9250    19.9230 N.pl3        1 C2F1200   0.0000
     4 N3          40.6970    14.7420    20.5630 N.pl3        1 C2F1200   0.0000
     5 C4          40.3280    13.5950    21.1520 C.2          1 C2F1200   0.0000
     6 O4          41.2210    12.5670    21.2200 O.2          1 C2F1200   0.0000
     7 C4A         39.0660    13.4670    21.7180 C.2          1 C2F1200   0.0000
     8 N5          38.7340    12.4010    22.4560 N.pl3        1 C2F1200   0.0000
     9 C6          37.5410    12.4660    23.3170 C.3          1 C2F1200   0.0000
    10 C7          36.3980    13.2040    22.6150 C.3          1 C2F1200   0.0000
    11 N8          36.8980    14.4880    22.0740 N.pl3        1 C2F1200   0.0000
    12 C8A         38.2230    14.5760    21.6370 C.2          1 C2F1200   0.0000
    13 C9          37.9420    13.1590    24.6250 C.3          1 C2F1200   0.0000
    14 N10         36.8370    13.9180    25.2280 N.pl3        1 C2F1200   0.0000
    15 C11         39.0860    11.0850    21.9000 C.3          1 C2F1200   0.0000
    16 C12         33.7110    12.3940    27.4460 C.ar         1 C2F1200   0.0000
    17 C13         33.8170    13.7620    27.2060 C.ar         1 C2F1200   0.0000
    18 C14         34.8840    14.2570    26.4620 C.ar         1 C2F1200   0.0000
    19 C15         35.8500    13.3930    25.9550 C.ar         1 C2F1200   0.0000
    20 C16         35.7450    12.0260    26.1970 C.ar         1 C2F1200   0.0000
    21 C17         34.6760    11.5290    26.9410 C.ar         1 C2F1200   0.0000
    22 C           32.5230    11.8730    28.2580 C.2          1 C2F1200   0.0000
    23 O           31.7600    12.6530    28.8200 O.2          1 C2F1200   0.0000
    24 N           32.3910    10.5450    28.3040 N.am         1 C2F1200   0.0000
    25 CA          31.3010     9.8960    29.0430 C.3          1 C2F1200   0.0000
    26 CB          30.4650     9.0190    28.1060 C.3          1 C2F1200   0.0000
    27 CG          29.7510     9.8590    27.0450 C.3          1 C2F1200   0.0000
    28 CD          28.8700     8.9890    26.1430 C.2          1 C2F1200   0.0000
    29 OE1         27.6610     8.8960    26.4490 O.co2        1 C2F1200   0.0000
    30 OE2         29.4240     8.4420    25.1660 O.co2        1 C2F1200  -1.0000
    31 CT          31.8690     9.0440    30.1820 C.2          1 C2F1200   0.0000
    32 O1          31.0820     8.2740    30.7620 O.co2        1 C2F1200   0.0000
    33 O2          33.0850     9.1920    30.4500 O.co2        1 C2F1200  -1.0000
    34 HA21        41.1636    16.9932    19.5221 H            1 C2F1200   0.0000
    35 HA22        39.6271    17.7063    19.8837 H            1 C2F1200   0.0000
    36 H3          37.2429    11.5343    23.5247 H            1 C2F1200   0.0000
    37 H4          35.6639    13.3817    23.2703 H            1 C2F1200   0.0000
    38 H5          36.0476    12.6409    21.8666 H            1 C2F1200   0.0000
    39 H6          36.2946    15.2837    22.0217 H            1 C2F1200   0.0000
    40 H7          38.6959    13.7880    24.4355 H            1 C2F1200   0.0000
    41 H8          38.2444    12.4628    25.2760 H            1 C2F1200   0.0000
    42 H9          36.8244    14.9071    25.0813 H            1 C2F1200   0.0000
    43 H10         38.7927    10.3671    22.5313 H            1 C2F1200   0.0000
    44 H11         38.6283    10.9619    21.0194 H            1 C2F1200   0.0000
    45 H12         40.0762    11.0315    21.7713 H            1 C2F1200   0.0000
    46 H13         33.1266    14.3883    27.5682 H            1 C2F1200   0.0000
    47 H14         34.9570    15.2395    26.2907 H            1 C2F1200   0.0000
    48 H15         36.4369    11.4002    25.8369 H            1 C2F1200   0.0000
    49 H16         34.6027    10.5465    27.1123 H            1 C2F1200   0.0000
    50 H17         33.0551     9.9750    27.8202 H            1 C2F1200   0.0000
    51 HA          30.7113    10.6030    29.4333 H            1 C2F1200   0.0000
    52 HB1         29.7818     8.5262    28.6449 H            1 C2F1200   0.0000
    53 HB2         31.0671     8.3630    27.6508 H            1 C2F1200   0.0000
    54 HG1         30.4354    10.3224    26.4821 H            1 C2F1200   0.0000
    55 HG2         29.1777    10.5399    27.5007 H            1 C2F1200   0.0000
    56 H23         41.6080    14.8155    20.1573 H            1 C2F1200   0.0000
@<TRIPOS>BOND
     1    1    2       2
     2    1   12       1
     3    2    3       1
     4    2    4       1
     5    4    5       1
     6    5    6       2
     7    5    7       1
     8    7    8       1
     9    7   12       2
    10    8    9       1
    11    8   15       1
    12    9   10       1
    13    9   13       1
    14   10   11       1
    15   11   12       1
    16   13   14       1
    17   14   19       1
    18   16   17      ar
    19   16   21      ar
    20   16   22       1
    21   17   18      ar
    22   18   19      ar
    23   19   20      ar
    24   20   21      ar
    25   22   23       2
    26   22   24      am
    27   24   25       1
    28   25   26       1
    29   25   31       1
    30   26   27       1
    31   27   28       1
    32   28   29      ar
    33   28   30      ar
    34   31   32      ar
    35   31   33      ar
    36    4   56       1
    37    3   34       1
    38    3   35       1
    39    9   36       1
    40   10   37       1
    41   10   38       1
    42   11   39       1
    43   13   40       1
    44   13   41       1
    45   14   42       1
    46   15   43       1
    47   15   44       1
    48   15   45       1
    49   17   46       1
    50   18   47       1
    51   20   48       1
    52   21   49       1
    53   24   50       1
    54   25   51       1
    55   26   52       1
    56   26   53       1
    57   27   54       1
    58   27   55       1
@<TRIPOS>SUBSTRUCTURE
     1 C2F1200     1 GROUP             4 A     C2F     0 **** C2F A1200
