@<TRIPOS>MOLECULE
3zs7_ATP_1_ligand
   43    45     1     0     0
SMALL
NO_CHARGES


@<TRIPOS>ATOM
     1 PG          -6.9740    -7.6900   -17.3270 P.3          1 ATP1301   0.0000
     2 O1G         -7.6690    -6.4570   -17.8620 O.co2        1 ATP1301   0.0000
     3 O2G         -6.9530    -7.8030   -15.8200 O.co2        1 ATP1301  -1.0000
     4 O3G         -5.6450    -7.9830   -17.9740 O.co2        1 ATP1301  -1.0000
     5 PB          -7.5120   -10.4040   -18.0800 P.3          1 ATP1301   0.0000
     6 O1B         -7.0110   -10.5920   -19.4900 O.co2        1 ATP1301   0.0000
     7 O2B         -6.6380   -10.8030   -16.9150 O.co2        1 ATP1301  -1.0000
     8 O3B         -7.9600    -8.8720   -17.8450 O.3          1 ATP1301   0.0000
     9 PA          -9.8670   -11.5590   -19.1600 P.3          1 ATP1301   0.0000
    10 O1A         -9.2970   -10.9670   -20.4230 O.co2        1 ATP1301   0.0000
    11 O2A        -10.2030   -13.0280   -19.1290 O.co2        1 ATP1301  -1.0000
    12 O3A         -8.8980   -11.2180   -17.9190 O.3          1 ATP1301   0.0000
    13 O5'        -11.1920   -10.7340   -18.7790 O.3          1 ATP1301   0.0000
    14 C5'        -11.8260   -10.9030   -17.5150 C.3          1 ATP1301   0.0000
    15 C4'        -13.3320   -11.0160   -17.7260 C.3          1 ATP1301   0.0000
    16 O4'        -13.9020    -9.7770   -18.1630 O.3          1 ATP1301   0.0000
    17 C3'        -13.6790   -12.0380   -18.7990 C.3          1 ATP1301   0.0000
    18 O3'        -13.9830   -13.3170   -18.2350 O.3          1 ATP1301   0.0000
    19 C2'        -14.8910   -11.4710   -19.5050 C.3          1 ATP1301   0.0000
    20 O2'        -16.0690   -12.1940   -19.1470 O.3          1 ATP1301   0.0000
    21 C1'        -15.0040   -10.0280   -19.0450 C.3          1 ATP1301   0.0000
    22 N9         -14.9930    -9.1430   -20.2370 N.pl3        1 ATP1301   0.0000
    23 C8         -16.0630    -8.8810   -21.0230 C.2          1 ATP1301   0.0000
    24 N7         -15.7260    -8.0400   -22.0360 N.2          1 ATP1301   0.0000
    25 C5         -14.4130    -7.7580   -21.9020 C.ar         1 ATP1301   0.0000
    26 C6         -13.4180    -6.9350   -22.6210 C.ar         1 ATP1301   0.0000
    27 N6         -13.7620    -6.2280   -23.7200 N.pl3        1 ATP1301   0.0000
    28 N1         -12.1540    -6.9160   -22.1470 N.ar         1 ATP1301   0.0000
    29 C2         -11.7860    -7.6130   -21.0570 C.ar         1 ATP1301   0.0000
    30 N3         -12.6400    -8.3770   -20.3540 N.ar         1 ATP1301   0.0000
    31 C4         -13.9370    -8.4900   -20.7170 C.ar         1 ATP1301   0.0000
    32 H5'1       -11.6273   -10.1150   -16.9323 H            1 ATP1301   0.0000
    33 H5'2       -11.4854   -11.7353   -17.0777 H            1 ATP1301   0.0000
    34 H4'        -13.7626   -11.2876   -16.8653 H            1 ATP1301   0.0000
    35 H3'        -12.9198   -12.1236   -19.4442 H            1 ATP1301   0.0000
    36 H5         -13.7306   -14.0356   -18.8830 H            1 ATP1301   0.0000
    37 H2'        -14.7568   -11.5047   -20.4954 H            1 ATP1301   0.0000
    38 H7         -15.8310   -12.9214   -18.5034 H            1 ATP1301   0.0000
    39 H1'        -15.8625    -9.9043   -18.5474 H            1 ATP1301   0.0000
    40 H9         -16.9787    -9.2559   -20.8779 H            1 ATP1301   0.0000
    41 H10        -13.0761    -5.6762   -24.1945 H            1 ATP1301   0.0000
    42 H11        -14.7024    -6.2566   -24.0588 H            1 ATP1301   0.0000
    43 H12        -10.8339    -7.5605   -20.7559 H            1 ATP1301   0.0000
@<TRIPOS>BOND
     1    1    2      ar
     2    1    3      ar
     3    1    4      ar
     4    1    8       1
     5    5    6      ar
     6    5    7      ar
     7    5    8       1
     8    5   12       1
     9    9   10      ar
    10    9   11      ar
    11    9   12       1
    12    9   13       1
    13   13   14       1
    14   14   15       1
    15   15   16       1
    16   15   17       1
    17   16   21       1
    18   17   18       1
    19   17   19       1
    20   19   20       1
    21   19   21       1
    22   21   22       1
    23   22   23       1
    24   22   31       1
    25   23   24       2
    26   24   25       1
    27   25   26      ar
    28   25   31      ar
    29   26   27       1
    30   26   28      ar
    31   28   29      ar
    32   29   30      ar
    33   30   31      ar
    34   29   43       1
    35   27   42       1
    36   27   41       1
    37   23   40       1
    38   14   32       1
    39   14   33       1
    40   15   34       1
    41   17   35       1
    42   18   36       1
    43   19   37       1
    44   20   38       1
    45   21   39       1
@<TRIPOS>SUBSTRUCTURE
     1 ATP1301     1 GROUP             4 A     ATP     0 **** ATP A1301
