@<TRIPOS>MOLECULE
3t7v_SAM_1_ligand
   49    51     1     0     0
SMALL
NO_CHARGES


@<TRIPOS>ATOM
     1 N           51.4010    31.1680    -0.5890 N.3          1 SAM992   0.0000
     2 CA          52.0000    31.6180     0.5780 C.3          1 SAM992   0.0000
     3 C           51.1960    31.4300     1.8010 C.2          1 SAM992   0.0000
     4 O           50.0330    30.9840     1.7200 O.co2        1 SAM992   0.0000
     5 OXT         51.7880    31.6270     2.9200 O.co2        1 SAM992  -1.0000
     6 CB          51.9850    32.9750     0.6890 C.3          1 SAM992   0.0000
     7 CG          50.8210    33.7900     0.2950 C.3          1 SAM992   0.0000
     8 SD          50.2540    34.9100     1.6450 S.3          1 SAM992   1.0000
     9 CE          50.5650    36.4970     0.9200 C.3          1 SAM992   0.0000
    10 C5'         48.4870    34.7950     1.4630 C.3          1 SAM992   0.0000
    11 C4'         47.8350    35.0820     2.5960 C.3          1 SAM992   0.0000
    12 O4'         47.1130    36.2250     1.8110 O.3          1 SAM992   0.0000
    13 C3'         47.0850    34.1310     3.1410 C.3          1 SAM992   0.0000
    14 O3'         47.9870    33.9590     4.2430 O.3          1 SAM992   0.0000
    15 C2'         46.0180    35.1410     3.5850 C.3          1 SAM992   0.0000
    16 O2'         46.1960    35.6240     4.9570 O.3          1 SAM992   0.0000
    17 C1'         45.9200    36.3170     2.5970 C.3          1 SAM992   0.0000
    18 N9          44.7980    36.0680     1.6190 N.pl3        1 SAM992   0.0000
    19 C8          44.6950    35.1530     0.6080 C.2          1 SAM992   0.0000
    20 N7          43.5030    35.2640     0.0400 N.2          1 SAM992   0.0000
    21 C5          42.8270    36.2750     0.6840 C.ar         1 SAM992   0.0000
    22 C6          41.5210    36.7740     0.5640 C.ar         1 SAM992   0.0000
    23 N6          40.6480    36.3040    -0.3280 N.pl3        1 SAM992   0.0000
    24 N1          41.1630    37.8140     1.3320 N.ar         1 SAM992   0.0000
    25 C2          42.0070    38.3300     2.2740 C.ar         1 SAM992   0.0000
    26 N3          43.2330    37.7970     2.4960 N.ar         1 SAM992   0.0000
    27 C4          43.6350    36.7800     1.6700 C.ar         1 SAM992   0.0000
    28 H1          51.7155    31.7217    -1.3601 H            1 SAM992   0.0000
    29 HA          52.9237    31.2497     0.6839 H            1 SAM992   0.0000
    30 HB1         52.7539    33.3067     0.1424 H            1 SAM992   0.0000
    31 HB2         52.1509    33.1764     1.6544 H            1 SAM992   0.0000
    32 HG1         50.0694    33.1779     0.0492 H            1 SAM992   0.0000
    33 HG2         51.0718    34.3451    -0.4981 H            1 SAM992   0.0000
    34 HE1         50.2960    37.2152     1.5618 H            1 SAM992   0.0000
    35 HE2         51.5394    36.5834     0.7123 H            1 SAM992   0.0000
    36 HE3         50.0351    36.5879     0.0768 H            1 SAM992   0.0000
    37 H5'1        48.2532    33.8631     1.1858 H            1 SAM992   0.0000
    38 H5'2        48.1953    35.4368     0.7538 H            1 SAM992   0.0000
    39 H4'         48.4625    35.4649     3.2740 H            1 SAM992   0.0000
    40 H3'         46.8173    33.3383     2.5933 H            1 SAM992   0.0000
    41 H14         47.4750    33.6648     5.0500 H            1 SAM992   0.0000
    42 H2'         45.1390    34.6650     3.5571 H            1 SAM992   0.0000
    43 H16         45.6999    35.0270     5.5875 H            1 SAM992   0.0000
    44 H1'         45.8346    37.1992     3.0601 H            1 SAM992   0.0000
    45 H18         45.4063    34.5033     0.3399 H            1 SAM992   0.0000
    46 H19         39.7270    36.6904    -0.3778 H            1 SAM992   0.0000
    47 H20         40.9144    35.5652    -0.9470 H            1 SAM992   0.0000
    48 H21         41.7132    39.1197     2.8125 H            1 SAM992   0.0000
    49 H22         51.6479    30.2113    -0.7430 H            1 SAM992   0.0000
@<TRIPOS>BOND
     1    1    2       1
     2    2    3       1
     3    2    6       1
     4    3    4      ar
     5    3    5      ar
     6    6    7       1
     7    7    8       1
     8    8    9       1
     9    8   10       1
    10   10   11       1
    11   11   12       1
    12   11   13       1
    13   12   17       1
    14   13   14       1
    15   13   15       1
    16   15   16       1
    17   15   17       1
    18   17   18       1
    19   18   19       1
    20   18   27       1
    21   19   20       2
    22   20   21       1
    23   21   22      ar
    24   21   27      ar
    25   22   23       1
    26   22   24      ar
    27   24   25      ar
    28   25   26      ar
    29   26   27      ar
    30   25   48       1
    31    1   28       1
    32    2   29       1
    33    1   49       1
    34    6   30       1
    35    6   31       1
    36    7   32       1
    37    7   33       1
    38    9   34       1
    39    9   35       1
    40    9   36       1
    41   10   37       1
    42   10   38       1
    43   11   39       1
    44   13   40       1
    45   14   41       1
    46   15   42       1
    47   16   43       1
    48   17   44       1
    49   19   45       1
    50   23   46       1
    51   23   47       1
@<TRIPOS>SUBSTRUCTURE
     1 SAM992      1 GROUP             4 A     SAM     0 **** SAM A 992
