@<TRIPOS>MOLECULE
1hze_RBF_1_ligand
   47    49     1     0     0
SMALL
NO_CHARGES


@<TRIPOS>ATOM
     1 N1          -7.1120    -7.1700    -8.4560 N.2          1 RBF98    0.0000
     2 C2          -6.8980    -6.8540    -9.7470 C.2          1 RBF98    0.0000
     3 O2          -7.9410    -6.6550   -10.5680 O.2          1 RBF98    0.0000
     4 N3          -5.6040    -6.7380   -10.2320 N.pl3        1 RBF98    0.0000
     5 C4          -4.5280    -6.9510    -9.3840 C.2          1 RBF98    0.0000
     6 O4          -3.2770    -6.8400    -9.8480 O.2          1 RBF98    0.0000
     7 C4A         -4.7600    -7.2830    -8.0430 C.2          1 RBF98    0.0000
     8 N5          -3.7470    -7.4990    -7.1870 N.2          1 RBF98    0.0000
     9 C5A         -3.9530    -7.8150    -5.8940 C.ar         1 RBF98    0.0000
    10 C6          -2.8590    -8.0320    -5.0470 C.ar         1 RBF98    0.0000
    11 C7          -3.0680    -8.3610    -3.7020 C.ar         1 RBF98    0.0000
    12 C7M         -1.8880    -8.5980    -2.7910 C.3          1 RBF98    0.0000
    13 C8          -4.3730    -8.4710    -3.2020 C.ar         1 RBF98    0.0000
    14 C8M         -4.5960    -8.8310    -1.7520 C.3          1 RBF98    0.0000
    15 C9          -5.4710    -8.2560    -4.0470 C.ar         1 RBF98    0.0000
    16 C9A         -5.2650    -7.9280    -5.3970 C.ar         1 RBF98    0.0000
    17 N10         -6.3390    -7.7090    -6.2640 N.pl3        1 RBF98    0.0000
    18 C10         -6.0920    -7.3840    -7.6000 C.2          1 RBF98    0.0000
    19 C1'         -7.7280    -7.8140    -5.7780 C.3          1 RBF98    0.0000
    20 C2'         -7.9790    -9.2090    -5.2020 C.3          1 RBF98    0.0000
    21 O2'         -6.8820   -10.0670    -5.5290 O.3          1 RBF98    0.0000
    22 C3'         -9.2690    -9.7800    -5.7880 C.3          1 RBF98    0.0000
    23 O3'         -9.3020    -9.5380    -7.1970 O.3          1 RBF98    0.0000
    24 C4'        -10.4690    -9.1050    -5.1260 C.3          1 RBF98    0.0000
    25 O4'        -10.4310    -9.3440    -3.7160 O.3          1 RBF98    0.0000
    26 C5'        -11.7610    -9.6780    -5.7050 C.3          1 RBF98    0.0000
    27 O5'        -11.7980   -11.0900    -5.4830 O.3          1 RBF98    0.0000
    28 H1          -5.4474    -6.5013   -11.1909 H            1 RBF98    0.0000
    29 H2          -1.9279    -7.9519    -5.4029 H            1 RBF98    0.0000
    30 H7M1        -2.2153    -8.8207    -1.8727 H            1 RBF98    0.0000
    31 H7M2        -1.3420    -9.3579    -3.1436 H            1 RBF98    0.0000
    32 H7M3        -1.3250    -7.7724    -2.7532 H            1 RBF98    0.0000
    33 H8M1        -5.5776    -8.8666    -1.5645 H            1 RBF98    0.0000
    34 H8M2        -4.1881    -9.7244    -1.5638 H            1 RBF98    0.0000
    35 H8M3        -4.1699    -8.1403    -1.1677 H            1 RBF98    0.0000
    36 H9          -6.4010    -8.3362    -3.6884 H            1 RBF98    0.0000
    37 H1'1        -8.3575    -7.6517    -6.5378 H            1 RBF98    0.0000
    38 H1'2        -7.8819    -7.1293    -5.0656 H            1 RBF98    0.0000
    39 H2'         -8.0659    -9.1464    -4.2078 H            1 RBF98    0.0000
    40 H13         -7.0476   -10.9782    -5.1519 H            1 RBF98    0.0000
    41 H3'         -9.3049   -10.7648    -5.6181 H            1 RBF98    0.0000
    42 H15         -9.8179   -10.2661    -7.6483 H            1 RBF98    0.0000
    43 H4'        -10.4345    -8.1205    -5.2982 H            1 RBF98    0.0000
    44 H17        -11.2162    -8.9025    -3.2818 H            1 RBF98    0.0000
    45 H5'1       -11.7964    -9.4940    -6.6873 H            1 RBF98    0.0000
    46 H5'2       -12.5457    -9.2495    -5.2571 H            1 RBF98    0.0000
    47 H5'        -12.6440   -11.4650    -5.8621 H            1 RBF98    0.0000
@<TRIPOS>BOND
     1    1    2       1
     2    1   18       2
     3    2    3       2
     4    2    4       1
     5    4    5       1
     6    5    6       2
     7    5    7       1
     8    7    8       2
     9    7   18       1
    10    8    9       1
    11    9   10      ar
    12    9   16      ar
    13   10   11      ar
    14   11   12       1
    15   11   13      ar
    16   13   14       1
    17   13   15      ar
    18   15   16      ar
    19   16   17       1
    20   17   18       1
    21   17   19       1
    22   19   20       1
    23   20   21       1
    24   20   22       1
    25   22   23       1
    26   22   24       1
    27   24   25       1
    28   24   26       1
    29   26   27       1
    30    4   28       1
    31   10   29       1
    32   12   30       1
    33   12   31       1
    34   12   32       1
    35   14   33       1
    36   14   34       1
    37   14   35       1
    38   15   36       1
    39   19   37       1
    40   19   38       1
    41   20   39       1
    42   21   40       1
    43   22   41       1
    44   23   42       1
    45   24   43       1
    46   25   44       1
    47   26   45       1
    48   26   46       1
    49   27   47       1
@<TRIPOS>SUBSTRUCTURE
     1 RBF98       1 GROUP             4 A     RBF     0 **** RBF A  98
