@<TRIPOS>MOLECULE
3pkp_DTP_6_ligand
   42    44     1     0     0
SMALL
NO_CHARGES


@<TRIPOS>ATOM
     1 PG          83.0870   -22.3760    16.7180 P.3          1 DTP500   0.0000
     2 O1G         82.2650   -21.6030    17.7490 O.co2        1 DTP500   0.0000
     3 O2G         83.8170   -22.6590    15.4750 O.co2        1 DTP500  -1.0000
     4 O3G         84.4160   -22.0370    17.3850 O.co2        1 DTP500  -1.0000
     5 PB          82.9530   -21.2860    13.9350 P.3          1 DTP500   0.0000
     6 O1B         81.7970   -21.7970    13.0880 O.co2        1 DTP500   0.0000
     7 O2B         84.3720   -21.7680    13.6250 O.co2        1 DTP500  -1.0000
     8 O3B         82.5710   -21.2760    15.5630 O.3          1 DTP500   0.0000
     9 PA          84.3960   -18.8140    13.7830 P.3          1 DTP500   0.0000
    10 O1A         85.4350   -19.5630    14.6150 O.co2        1 DTP500   0.0000
    11 O2A         84.0890   -17.3750    14.1290 O.co2        1 DTP500  -1.0000
    12 O3A         83.0180   -19.6820    13.7200 O.3          1 DTP500   0.0000
    13 O5'         84.7970   -18.7720    12.2150 O.3          1 DTP500   0.0000
    14 C5'         85.0890   -17.5300    11.5590 C.3          1 DTP500   0.0000
    15 C4'         84.1290   -17.3680    10.3910 C.3          1 DTP500   0.0000
    16 O4'         84.4320   -18.2470     9.3100 O.3          1 DTP500   0.0000
    17 C3'         82.7140   -17.6970    10.7970 C.3          1 DTP500   0.0000
    18 O3'         81.9170   -16.7620    10.1010 O.3          1 DTP500   0.0000
    19 C2'         82.4430   -19.0840    10.2600 C.3          1 DTP500   0.0000
    20 C1'         83.3700   -19.1890     9.0630 C.3          1 DTP500   0.0000
    21 N9          83.9660   -20.5390     8.8880 N.pl3        1 DTP500   0.0000
    22 C8          84.5850   -21.2810     9.8340 C.2          1 DTP500   0.0000
    23 N7          85.0550   -22.4490     9.3260 N.2          1 DTP500   0.0000
    24 C5          84.7480   -22.4520     8.0110 C.ar         1 DTP500   0.0000
    25 C6          84.9420   -23.3800     6.8640 C.ar         1 DTP500   0.0000
    26 N6          85.5790   -24.5660     6.9960 N.pl3        1 DTP500   0.0000
    27 N1          84.4580   -22.9950     5.6650 N.ar         1 DTP500   0.0000
    28 C2          83.8270   -21.8130     5.4940 C.ar         1 DTP500   0.0000
    29 N3          83.6090   -20.9240     6.4830 N.ar         1 DTP500   0.0000
    30 C4          84.0410   -21.1850     7.7350 C.ar         1 DTP500   0.0000
    31 H5'1        86.0310   -17.5384    11.2235 H            1 DTP500   0.0000
    32 H5'2        84.9706   -16.7727    12.2012 H            1 DTP500   0.0000
    33 H4'         84.1654   -16.4232    10.0654 H            1 DTP500   0.0000
    34 H3'         82.5826   -17.6427    11.7868 H            1 DTP500   0.0000
    35 H5          81.0230   -17.1656     9.9062 H            1 DTP500   0.0000
    36 H2'1        81.4873   -19.1788     9.9812 H            1 DTP500   0.0000
    37 H2'2        82.6615   -19.7807    10.9433 H            1 DTP500   0.0000
    38 H1'         82.8770   -18.9293     8.2326 H            1 DTP500   0.0000
    39 H9          84.6843   -21.0037    10.7896 H            1 DTP500   0.0000
    40 H10         85.6910   -25.1644     6.2027 H            1 DTP500   0.0000
    41 H11         85.9379   -24.8444     7.8869 H            1 DTP500   0.0000
    42 H12         83.5015   -21.5834     4.5768 H            1 DTP500   0.0000
@<TRIPOS>BOND
     1    1    2      ar
     2    1    3      ar
     3    1    4      ar
     4    1    8       1
     5    5    6      ar
     6    5    7      ar
     7    5    8       1
     8    5   12       1
     9    9   10      ar
    10    9   11      ar
    11    9   12       1
    12    9   13       1
    13   13   14       1
    14   14   15       1
    15   15   16       1
    16   15   17       1
    17   16   20       1
    18   17   18       1
    19   17   19       1
    20   19   20       1
    21   20   21       1
    22   21   22       1
    23   21   30       1
    24   22   23       2
    25   23   24       1
    26   24   25      ar
    27   24   30      ar
    28   25   26       1
    29   25   27      ar
    30   27   28      ar
    31   28   29      ar
    32   29   30      ar
    33   28   42       1
    34   26   41       1
    35   26   40       1
    36   22   39       1
    37   14   31       1
    38   14   32       1
    39   15   33       1
    40   17   34       1
    41   18   35       1
    42   19   36       1
    43   19   37       1
    44   20   38       1
@<TRIPOS>SUBSTRUCTURE
     1 DTP500      1 GROUP             4 J     DTP     0 **** DTP J 500
