@<TRIPOS>MOLECULE
3v4f_GNP_1_ligand
   45    47     1     0     0
SMALL
NO_CHARGES


@<TRIPOS>ATOM
     1 PG          -9.9220    64.4810   -66.9580 P.3          1 GNP190   0.0000
     2 O1G         -8.9740    64.0790   -65.8530 O.co2        1 GNP190   0.0000
     3 O2G        -10.8210    65.5860   -66.5180 O.co2        1 GNP190  -1.0000
     4 O3G        -10.6630    63.2450   -67.4240 O.co2        1 GNP190  -1.0000
     5 N3B         -9.0300    65.0140   -68.2090 N.3          1 GNP190   0.0000
     6 PB          -9.5430    65.6960   -69.6050 P.3          1 GNP190   0.0000
     7 O1B         -9.9070    64.6600   -70.6030 O.co2        1 GNP190   0.0000
     8 O2B        -10.6150    66.6790   -69.3480 O.co2        1 GNP190  -1.0000
     9 O3A         -8.3100    66.4670   -70.1850 O.3          1 GNP190   0.0000
    10 PA          -7.9900    68.0260   -70.2070 P.3          1 GNP190   0.0000
    11 O1A         -8.9140    68.7040   -71.1210 O.co2        1 GNP190   0.0000
    12 O2A         -7.8340    68.4860   -68.8150 O.co2        1 GNP190  -1.0000
    13 O5'         -6.6000    68.0950   -70.9500 O.3          1 GNP190   0.0000
    14 C5'         -5.4980    67.3570   -70.4360 C.3          1 GNP190   0.0000
    15 C4'         -4.2190    67.9900   -70.9330 C.3          1 GNP190   0.0000
    16 O4'         -4.1300    67.8070   -72.3700 O.3          1 GNP190   0.0000
    17 C3'         -4.0930    69.4960   -70.7110 C.3          1 GNP190   0.0000
    18 O3'         -2.7110    69.8050   -70.4330 O.3          1 GNP190   0.0000
    19 C2'         -4.5300    70.1050   -72.0410 C.3          1 GNP190   0.0000
    20 O2'         -3.9180    71.3420   -72.3570 O.3          1 GNP190   0.0000
    21 C1'         -4.0140    69.0550   -73.0180 C.3          1 GNP190   0.0000
    22 N9          -4.7850    69.0150   -74.2530 N.pl3        1 GNP190   0.0000
    23 C8          -6.1530    68.8230   -74.3400 C.2          1 GNP190   0.0000
    24 N7          -6.5840    68.8720   -75.5690 N.2          1 GNP190   0.0000
    25 C5          -5.4390    69.0970   -76.3330 C.2          1 GNP190   0.0000
    26 C6          -5.2890    69.2180   -77.7260 C.2          1 GNP190   0.0000
    27 O6          -6.1690    69.1430   -78.6010 O.2          1 GNP190   0.0000
    28 N1          -3.9640    69.4400   -78.1070 N.pl3        1 GNP190   0.0000
    29 C2          -2.9190    69.5290   -77.2180 C.2          1 GNP190   0.0000
    30 N2          -1.7050    69.7500   -77.7550 N.pl3        1 GNP190   0.0000
    31 N3          -3.0460    69.3990   -75.9010 N.2          1 GNP190   0.0000
    32 C4          -4.3270    69.1800   -75.5310 C.2          1 GNP190   0.0000
    33 H3B         -8.4157    65.6936   -67.8081 H            1 GNP190   0.0000
    34 H5'1        -5.5501    66.4098   -70.7524 H            1 GNP190   0.0000
    35 H5'2        -5.5168    67.3760   -69.4364 H            1 GNP190   0.0000
    36 H4'         -3.4422    67.5329   -70.4999 H            1 GNP190   0.0000
    37 H3'         -4.6858    69.7997   -69.9651 H            1 GNP190   0.0000
    38 H6          -2.3655    70.4389   -71.1249 H            1 GNP190   0.0000
    39 H2'         -5.5262    70.1777   -72.0894 H            1 GNP190   0.0000
    40 H8          -4.4719    72.0906   -71.9926 H            1 GNP190   0.0000
    41 H1'         -3.0532    69.2358   -73.2281 H            1 GNP190   0.0000
    42 H10         -6.7440    68.6646   -73.5490 H            1 GNP190   0.0000
    43 H11         -3.7639    69.5399   -79.0817 H            1 GNP190   0.0000
    44 H12         -0.9026    69.8251   -77.1630 H            1 GNP190   0.0000
    45 H13         -1.6053    69.8391   -78.7460 H            1 GNP190   0.0000
@<TRIPOS>BOND
     1    1    2      ar
     2    1    3      ar
     3    1    4      ar
     4    1    5       1
     5    5    6       1
     6    6    7      ar
     7    6    8      ar
     8    6    9       1
     9    9   10       1
    10   10   11      ar
    11   10   12      ar
    12   10   13       1
    13   13   14       1
    14   14   15       1
    15   15   16       1
    16   15   17       1
    17   16   21       1
    18   17   18       1
    19   17   19       1
    20   19   20       1
    21   19   21       1
    22   21   22       1
    23   22   23       1
    24   22   32       1
    25   23   24       2
    26   24   25       1
    27   25   26       1
    28   25   32       2
    29   26   27       2
    30   26   28       1
    31   28   29       1
    32   29   30       1
    33   29   31       2
    34   31   32       1
    35   30   45       1
    36   30   44       1
    37    5   33       1
    38   28   43       1
    39   23   42       1
    40   14   34       1
    41   14   35       1
    42   15   36       1
    43   17   37       1
    44   18   38       1
    45   19   39       1
    46   20   40       1
    47   21   41       1
@<TRIPOS>SUBSTRUCTURE
     1 GNP190      1 GROUP             4 A     GNP     0 **** GNP A 190
