@<TRIPOS>MOLECULE
1jdz_FMB_2_ligand
   31    33     1     0     0
SMALL
NO_CHARGES


@<TRIPOS>ATOM
     1 N1          65.7120   109.4290    37.3710 N.2          1 FMB275   0.0000
     2 C2          66.5870   108.4860    36.8320 C.2          1 FMB275   0.0000
     3 N3          67.1200   108.5940    35.5960 N.pl3        1 FMB275   0.0000
     4 C4          66.7070   109.7200    34.9390 C.2          1 FMB275   0.0000
     5 C5          65.8350   110.7200    35.3880 C.2          1 FMB275   0.0000
     6 C6          65.2770   110.6000    36.6950 C.2          1 FMB275   0.0000
     7 O6          64.5040   111.3710    37.2580 O.2          1 FMB275   0.0000
     8 N7          65.6640   111.7030    34.4220 N.pl3        1 FMB275   0.0000
     9 N8          66.4260   111.2970    33.4160 N.2          1 FMB275   0.0000
    10 C9          67.0900   110.0930    33.6690 C.2          1 FMB275   0.0000
    11 C1'         67.9490   109.7040    32.4990 C.3          1 FMB275   0.0000
    12 C2'         67.8100   110.5700    31.2510 C.3          1 FMB275   0.0000
    13 O2'         67.6260   109.7190    30.1520 O.3          1 FMB275   0.0000
    14 C3'         69.0950   111.4220    31.2000 C.3          1 FMB275   0.0000
    15 O3'         69.7580   111.4000    29.9110 O.3          1 FMB275   0.0000
    16 C4'         70.0130   110.8770    32.2890 C.3          1 FMB275   0.0000
    17 O4'         69.3160   109.7420    32.9030 O.3          1 FMB275   0.0000
    18 C5'         70.3580   111.9170    33.3700 C.3          1 FMB275   0.0000
    19 O5'         70.7070   111.3400    34.6450 O.3          1 FMB275   0.0000
    20 H1          66.8315   107.6914    37.3878 H            1 FMB275   0.0000
    21 H2          65.0978   112.5257    34.4733 H            1 FMB275   0.0000
    22 H1'         67.7253   108.7618    32.2494 H            1 FMB275   0.0000
    23 H2'         67.0151   111.1692    31.3467 H            1 FMB275   0.0000
    24 H5          68.0924   108.8507    30.3210 H            1 FMB275   0.0000
    25 H3'         68.8606   112.3682    31.4231 H            1 FMB275   0.0000
    26 H7          69.1379   111.7544    29.2111 H            1 FMB275   0.0000
    27 H4'         70.8596   110.5508    31.8685 H            1 FMB275   0.0000
    28 H5'1        69.5644   112.5114    33.4999 H            1 FMB275   0.0000
    29 H5'2        71.1327   112.4610    33.0478 H            1 FMB275   0.0000
    30 H5'         71.3531   111.9400    35.1168 H            1 FMB275   0.0000
    31 H12         67.7489   107.9229    35.2034 H            1 FMB275   0.0000
@<TRIPOS>BOND
     1    1    2       2
     2    1    6       1
     3    2    3       1
     4    3    4       1
     5    4    5       2
     6    4   10       1
     7    5    6       1
     8    5    8       1
     9    6    7       2
    10    8    9       1
    11    9   10       2
    12   10   11       1
    13   11   12       1
    14   11   17       1
    15   12   13       1
    16   12   14       1
    17   14   15       1
    18   14   16       1
    19   16   17       1
    20   16   18       1
    21   18   19       1
    22   19   30       1
    23    2   20       1
    24    8   21       1
    25   11   22       1
    26   12   23       1
    27   13   24       1
    28   14   25       1
    29   15   26       1
    30   16   27       1
    31   18   28       1
    32   18   29       1
    33    3   31       1
@<TRIPOS>SUBSTRUCTURE
     1 FMB275      1 GROUP             4 B     FMB     0 **** FMB B 275
