@<TRIPOS>MOLECULE
4hb9_FAD_1_ligand
   84    89     1     0     0
SMALL
NO_CHARGES


@<TRIPOS>ATOM
     1 PA          27.4910    23.0810    17.1150 P.3          1 FAD501   0.0000
     2 O1A         27.7740    21.8650    17.9570 O.co2        1 FAD501   0.0000
     3 O2A         27.2210    23.0690    15.6490 O.co2        1 FAD501  -1.0000
     4 O5B         26.3230    23.9090    17.8310 O.3          1 FAD501   0.0000
     5 C5B         25.8000    25.1060    17.2860 C.3          1 FAD501   0.0000
     6 C4B         24.4190    25.2460    17.8960 C.3          1 FAD501   0.0000
     7 O4B         23.9330    26.5750    17.6350 O.3          1 FAD501   0.0000
     8 C3B         23.3910    24.2490    17.3260 C.3          1 FAD501   0.0000
     9 O3B         22.6180    23.6410    18.3620 O.3          1 FAD501   0.0000
    10 C2B         22.5480    25.1370    16.4330 C.3          1 FAD501   0.0000
    11 O2B         21.2110    24.7120    16.2420 O.3          1 FAD501   0.0000
    12 C1B         22.5950    26.4640    17.2040 C.3          1 FAD501   0.0000
    13 N9A         22.3020    27.6700    16.4270 N.pl3        1 FAD501   0.0000
    14 C8A         22.8000    28.0150    15.2100 C.2          1 FAD501   0.0000
    15 N7A         22.3570    29.2490    14.8330 N.2          1 FAD501   0.0000
    16 C5A         21.5580    29.6820    15.8320 C.ar         1 FAD501   0.0000
    17 C6A         20.7620    30.9050    16.0530 C.ar         1 FAD501   0.0000
    18 N6A         20.7730    31.8390    15.0740 N.pl3        1 FAD501   0.0000
    19 N1A         20.0450    31.0070    17.1910 N.ar         1 FAD501   0.0000
    20 C2A         20.0840    30.0420    18.1380 C.ar         1 FAD501   0.0000
    21 N3A         20.7870    28.8990    18.0130 N.ar         1 FAD501   0.0000
    22 C4A         21.5380    28.6720    16.8850 C.ar         1 FAD501   0.0000
    23 N1          34.9490    17.0940    16.0460 N.2          1 FAD501   0.0000
    24 C2          35.8710    16.4500    16.7970 C.2          1 FAD501   0.0000
    25 O2          36.5500    17.0680    17.6890 O.2          1 FAD501   0.0000
    26 N3          36.0830    15.1320    16.6220 N.pl3        1 FAD501   0.0000
    27 C4          35.4770    14.3800    15.6980 C.2          1 FAD501   0.0000
    28 O4          35.7450    13.1530    15.5980 O.2          1 FAD501   0.0000
    29 C4X         34.4950    15.0170    14.8160 C.2          1 FAD501   0.0000
    30 N5          33.8170    14.3250    13.8560 N.2          1 FAD501   0.0000
    31 C5X         32.9280    14.9690    13.0660 C.ar         1 FAD501   0.0000
    32 C6          32.2470    14.2840    12.0660 C.ar         1 FAD501   0.0000
    33 C7          31.3180    14.9260    11.2440 C.ar         1 FAD501   0.0000
    34 C7M         30.5750    14.1770    10.1540 C.3          1 FAD501   0.0000
    35 C8          31.0590    16.3640    11.4270 C.ar         1 FAD501   0.0000
    36 C8M         30.0500    17.0860    10.5610 C.3          1 FAD501   0.0000
    37 C9          31.7370    17.0560    12.4260 C.ar         1 FAD501   0.0000
    38 C9A         32.6620    16.4270    13.2590 C.ar         1 FAD501   0.0000
    39 N10         33.3490    17.1370    14.2690 N.pl3        1 FAD501   0.0000
    40 C10         34.2760    16.4650    15.0580 C.2          1 FAD501   0.0000
    41 C1'         33.1690    18.5880    14.4790 C.3          1 FAD501   0.0000
    42 C2'         32.1540    18.9160    15.5720 C.3          1 FAD501   0.0000
    43 O2'         30.9440    18.2040    15.3760 O.3          1 FAD501   0.0000
    44 C3'         31.8690    20.4160    15.5480 C.3          1 FAD501   0.0000
    45 O3'         33.1040    21.1130    15.3890 O.3          1 FAD501   0.0000
    46 C4'         31.2160    20.8570    16.8500 C.3          1 FAD501   0.0000
    47 O4'         29.8450    20.5110    16.7830 O.3          1 FAD501   0.0000
    48 C5'         31.3310    22.3490    17.0800 C.3          1 FAD501   0.0000
    49 O5'         30.6910    22.6310    18.3070 O.3          1 FAD501   0.0000
    50 P           29.8880    24.0210    18.4260 P.3          1 FAD501   0.0000
    51 O1P         29.2530    23.9640    19.7950 O.co2        1 FAD501   0.0000
    52 O2P         30.8120    25.1500    18.0530 O.co2        1 FAD501  -1.0000
    53 O3P         28.7570    24.0530    17.2880 O.3          1 FAD501   0.0000
    54 H5B1        25.7391    25.0412    16.2900 H            1 FAD501   0.0000
    55 H5B2        26.3746    25.8857    17.5348 H            1 FAD501   0.0000
    56 H4B         24.4860    25.1133    18.8849 H            1 FAD501   0.0000
    57 H3B         23.8526    23.5486    16.7817 H            1 FAD501   0.0000
    58 H5          22.1246    24.3481    18.8685 H            1 FAD501   0.0000
    59 H2B         22.9968    25.2464    15.5461 H            1 FAD501   0.0000
    60 H7          20.7439    24.6741    17.1254 H            1 FAD501   0.0000
    61 H1B         21.9872    26.4164    17.9966 H            1 FAD501   0.0000
    62 H8A         23.4098    27.4407    14.6639 H            1 FAD501   0.0000
    63 H6A1        20.2476    32.6830    15.1822 H            1 FAD501   0.0000
    64 H6A2        21.3065    31.6853    14.2423 H            1 FAD501   0.0000
    65 H2A         19.5615    30.1848    18.9786 H            1 FAD501   0.0000
    66 H13         36.7411    14.6835    17.2268 H            1 FAD501   0.0000
    67 H14         32.4264    13.3094    11.9322 H            1 FAD501   0.0000
    68 H7M1        29.9591    14.8050     9.6784 H            1 FAD501   0.0000
    69 H7M2        31.2323    13.7976     9.5028 H            1 FAD501   0.0000
    70 H7M3        30.0439    13.4346    10.5623 H            1 FAD501   0.0000
    71 H8M1        30.0095    18.0487    10.8284 H            1 FAD501   0.0000
    72 H8M2        30.3245    17.0177     9.6018 H            1 FAD501   0.0000
    73 H8M3        29.1491    16.6687    10.6804 H            1 FAD501   0.0000
    74 H21         31.5559    18.0316    12.5501 H            1 FAD501   0.0000
    75 H1'1        32.8562    18.9969    13.6217 H            1 FAD501   0.0000
    76 H1'2        34.0509    18.9840    14.7349 H            1 FAD501   0.0000
    77 H2'         32.5389    18.6696    16.4615 H            1 FAD501   0.0000
    78 H25         31.1386    17.3349    14.9212 H            1 FAD501   0.0000
    79 H3'         31.2635    20.6292    14.7812 H            1 FAD501   0.0000
    80 H27         32.9423    21.9706    14.9007 H            1 FAD501   0.0000
    81 H4'         31.6418    20.3717    17.6136 H            1 FAD501   0.0000
    82 H29         29.3103    21.1617    17.3221 H            1 FAD501   0.0000
    83 H5'1        30.8826    22.8461    16.3371 H            1 FAD501   0.0000
    84 H5'2        32.2937    22.6157    17.1261 H            1 FAD501   0.0000
@<TRIPOS>BOND
     1    1    2      ar
     2    1    3      ar
     3    1    4       1
     4    1   53       1
     5    4    5       1
     6    5    6       1
     7    6    7       1
     8    6    8       1
     9    7   12       1
    10    8    9       1
    11    8   10       1
    12   10   11       1
    13   10   12       1
    14   12   13       1
    15   13   14       1
    16   13   22       1
    17   14   15       2
    18   15   16       1
    19   16   17      ar
    20   16   22      ar
    21   17   18       1
    22   17   19      ar
    23   19   20      ar
    24   20   21      ar
    25   21   22      ar
    26   23   24       1
    27   23   40       2
    28   24   25       2
    29   24   26       1
    30   26   27       1
    31   27   28       2
    32   27   29       1
    33   29   30       2
    34   29   40       1
    35   30   31       1
    36   31   32      ar
    37   31   38      ar
    38   32   33      ar
    39   33   34       1
    40   33   35      ar
    41   35   36       1
    42   35   37      ar
    43   37   38      ar
    44   38   39       1
    45   39   40       1
    46   39   41       1
    47   41   42       1
    48   42   43       1
    49   42   44       1
    50   44   45       1
    51   44   46       1
    52   46   47       1
    53   46   48       1
    54   48   49       1
    55   49   50       1
    56   50   51      ar
    57   50   52      ar
    58   50   53       1
    59   48   84       1
    60    5   54       1
    61    5   55       1
    62    6   56       1
    63    8   57       1
    64    9   58       1
    65   10   59       1
    66   11   60       1
    67   12   61       1
    68   14   62       1
    69   18   63       1
    70   18   64       1
    71   20   65       1
    72   26   66       1
    73   32   67       1
    74   34   68       1
    75   34   69       1
    76   34   70       1
    77   36   71       1
    78   36   72       1
    79   36   73       1
    80   37   74       1
    81   41   75       1
    82   41   76       1
    83   42   77       1
    84   43   78       1
    85   44   79       1
    86   45   80       1
    87   46   81       1
    88   47   82       1
    89   48   83       1
@<TRIPOS>SUBSTRUCTURE
     1 FAD501      1 GROUP             4 A     FAD     0 **** FAD A 501
