@<TRIPOS>MOLECULE
4gc9_SAM_1_ligand
   49    51     1     0     0
SMALL
NO_CHARGES


@<TRIPOS>ATOM
     1 N          -17.6850   -32.0930   -15.1370 N.3          1 SAM401   0.0000
     2 CA         -18.5890   -33.0730   -14.5470 C.3          1 SAM401   0.0000
     3 C          -17.9660   -33.7630   -13.3380 C.2          1 SAM401   0.0000
     4 O          -18.5480   -33.7770   -12.2530 O.co2        1 SAM401   0.0000
     5 OXT        -16.8700   -34.3180   -13.4120 O.co2        1 SAM401  -1.0000
     6 CB         -19.0000   -34.1140   -15.5800 C.3          1 SAM401   0.0000
     7 CG         -17.8350   -34.6270   -16.4100 C.3          1 SAM401   0.0000
     8 SD         -18.0060   -36.3590   -16.8860 S.3          1 SAM401   1.0000
     9 CE         -16.2510   -36.7830   -16.9570 C.3          1 SAM401   0.0000
    10 C5'        -18.3450   -36.1380   -18.6460 C.3          1 SAM401   0.0000
    11 C4'        -19.8300   -36.0130   -18.9420 C.3          1 SAM401   0.0000
    12 O4'        -19.9800   -35.4410   -20.2220 O.3          1 SAM401   0.0000
    13 C3'        -20.5160   -37.3670   -18.9560 C.3          1 SAM401   0.0000
    14 O3'        -21.5400   -37.3590   -17.9890 O.3          1 SAM401   0.0000
    15 C2'        -21.0940   -37.5110   -20.3490 C.3          1 SAM401   0.0000
    16 O2'        -22.4550   -37.8410   -20.2830 O.3          1 SAM401   0.0000
    17 C1'        -20.9520   -36.1370   -20.9690 C.3          1 SAM401   0.0000
    18 N9         -20.5650   -36.2260   -22.3870 N.pl3        1 SAM401   0.0000
    19 C8         -19.5740   -37.0000   -22.9320 C.2          1 SAM401   0.0000
    20 N7         -19.5540   -36.7840   -24.2670 N.2          1 SAM401   0.0000
    21 C5         -20.5170   -35.8880   -24.5800 C.ar         1 SAM401   0.0000
    22 C6         -20.9250   -35.3210   -25.7820 C.ar         1 SAM401   0.0000
    23 N6         -20.3270   -35.6460   -26.9250 N.pl3        1 SAM401   0.0000
    24 N1         -21.9640   -34.4140   -25.7810 N.ar         1 SAM401   0.0000
    25 C2         -22.5900   -34.0720   -24.6000 C.ar         1 SAM401   0.0000
    26 N3         -22.1790   -34.6360   -23.4110 N.ar         1 SAM401   0.0000
    27 C4         -21.1600   -35.5290   -23.4040 C.ar         1 SAM401   0.0000
    28 H1         -18.1272   -31.6632   -15.9242 H            1 SAM401   0.0000
    29 HA         -19.4123   -32.5940   -14.2426 H            1 SAM401   0.0000
    30 HB1        -19.6720   -33.7025   -16.1958 H            1 SAM401   0.0000
    31 HB2        -19.4154   -34.8884   -15.1028 H            1 SAM401   0.0000
    32 HG1        -16.9958   -34.5260   -15.8756 H            1 SAM401   0.0000
    33 HG2        -17.7696   -34.0744   -17.2409 H            1 SAM401   0.0000
    34 HE1        -16.1504   -37.7436   -17.2160 H            1 SAM401   0.0000
    35 HE2        -15.7957   -36.2055   -17.6347 H            1 SAM401   0.0000
    36 HE3        -15.8356   -36.6345   -16.0596 H            1 SAM401   0.0000
    37 H5'1       -17.9843   -36.9269   -19.1435 H            1 SAM401   0.0000
    38 H5'2       -17.8846   -35.3074   -18.9593 H            1 SAM401   0.0000
    39 H4'        -20.2610   -35.4245   -18.2579 H            1 SAM401   0.0000
    40 H3'        -19.8593   -38.0976   -18.7689 H            1 SAM401   0.0000
    41 H14        -22.4196   -37.5285   -18.4335 H            1 SAM401   0.0000
    42 H2'        -20.5873   -38.1934   -20.8759 H            1 SAM401   0.0000
    43 H16        -23.0009   -37.0032   -20.2698 H            1 SAM401   0.0000
    44 H1'        -21.8253   -35.6549   -20.8984 H            1 SAM401   0.0000
    45 H18        -18.9697   -37.6181   -22.4292 H            1 SAM401   0.0000
    46 H19        -20.6296   -35.2313   -27.7832 H            1 SAM401   0.0000
    47 H20        -19.5749   -36.3050   -26.9260 H            1 SAM401   0.0000
    48 H21        -23.3430   -33.4140   -24.6065 H            1 SAM401   0.0000
    49 H22        -17.4615   -31.3942   -14.4575 H            1 SAM401   0.0000
@<TRIPOS>BOND
     1    1    2       1
     2    2    3       1
     3    2    6       1
     4    3    4      ar
     5    3    5      ar
     6    6    7       1
     7    7    8       1
     8    8    9       1
     9    8   10       1
    10   10   11       1
    11   11   12       1
    12   11   13       1
    13   12   17       1
    14   13   14       1
    15   13   15       1
    16   15   16       1
    17   15   17       1
    18   17   18       1
    19   18   19       1
    20   18   27       1
    21   19   20       2
    22   20   21       1
    23   21   22      ar
    24   21   27      ar
    25   22   23       1
    26   22   24      ar
    27   24   25      ar
    28   25   26      ar
    29   26   27      ar
    30   25   48       1
    31    1   28       1
    32    2   29       1
    33    1   49       1
    34    6   30       1
    35    6   31       1
    36    7   32       1
    37    7   33       1
    38    9   34       1
    39    9   35       1
    40    9   36       1
    41   10   37       1
    42   10   38       1
    43   11   39       1
    44   13   40       1
    45   14   41       1
    46   15   42       1
    47   16   43       1
    48   17   44       1
    49   19   45       1
    50   23   46       1
    51   23   47       1
@<TRIPOS>SUBSTRUCTURE
     1 SAM401      1 GROUP             4 A     SAM     0 **** SAM A 401
