@<TRIPOS>MOLECULE
1v8l_APR_1_ligand
   57    60     1     0     0
SMALL
NO_CHARGES


@<TRIPOS>ATOM
     1 N1           1.9180     6.2590    49.5180 N.ar         1 APR619   0.0000
     2 C2           2.3750     5.6040    48.3460 C.ar         1 APR619   0.0000
     3 N3           3.0810     6.1900    47.2850 N.ar         1 APR619   0.0000
     4 C4           3.3020     7.5790    47.4550 C.ar         1 APR619   0.0000
     5 C5           2.9330     8.4190    48.5420 C.ar         1 APR619   0.0000
     6 C6           2.1750     7.7080    49.6480 C.ar         1 APR619   0.0000
     7 N6           1.7560     8.4030    50.7350 N.pl3        1 APR619   0.0000
     8 N7           3.3790     9.7940    48.3320 N.2          1 APR619   0.0000
     9 C8           4.0120     9.7390    47.1330 C.2          1 APR619   0.0000
    10 N9           3.9930     8.4060    46.6000 N.pl3        1 APR619   0.0000
    11 C1'          4.5840     7.7620    45.3350 C.3          1 APR619   0.0000
    12 C2'          4.2580     8.6290    44.0550 C.3          1 APR619   0.0000
    13 O2'          3.5130     7.8380    43.2000 O.3          1 APR619   0.0000
    14 C3'          5.4900     8.8650    43.3670 C.3          1 APR619   0.0000
    15 O3'          5.3150     8.1930    42.0050 O.3          1 APR619   0.0000
    16 O4'          5.9300     7.6120    45.4910 O.3          1 APR619   0.0000
    17 C4'          6.5820     8.2700    44.2550 C.3          1 APR619   0.0000
    18 C5'          7.3680     9.4480    44.5230 C.3          1 APR619   0.0000
    19 O5'          8.1920     9.6500    45.7670 O.3          1 APR619   0.0000
    20 PA           8.9230    11.0740    45.5660 P.3          1 APR619   0.0000
    21 O1A          8.3140    11.6580    44.5460 O.co2        1 APR619   0.0000
    22 O2A         10.2130    11.0080    45.2560 O.co2        1 APR619  -1.0000
    23 O3A          8.3220    12.1340    46.4430 O.3          1 APR619   0.0000
    24 PB           7.7650    13.0430    47.4630 P.3          1 APR619   0.0000
    25 O1B          6.4670    12.5120    47.7910 O.co2        1 APR619   0.0000
    26 O2B          7.6570    14.2250    46.6900 O.co2        1 APR619  -1.0000
    27 O5D          8.8050    13.8060    48.6240 O.3          1 APR619   0.0000
    28 C5D          9.6330    13.1260    49.5870 C.3          1 APR619   0.0000
    29 O4D          8.8940    15.3820    50.8300 O.3          1 APR619   0.0000
    30 O1D          7.8910    15.8570    52.9640 O.3          1 APR619   0.0000
    31 C1D          7.6910    15.2550    51.6410 C.3          1 APR619   0.0000
    32 O2D          6.7370    13.5170    52.9060 O.3          1 APR619   0.0000
    33 C2D          7.4240    13.7420    51.7470 C.3          1 APR619   0.0000
    34 O3D          9.4510    13.0810    52.9910 O.3          1 APR619   0.0000
    35 C3D          8.8490    13.0720    51.7330 C.3          1 APR619   0.0000
    36 C4D          9.6800    13.9240    50.8910 C.3          1 APR619   0.0000
    37 H1           2.1740     4.6275    48.2683 H            1 APR619   0.0000
    38 H2           1.9404     9.3835    50.8032 H            1 APR619   0.0000
    39 H3           1.2627     7.9349    51.4682 H            1 APR619   0.0000
    40 H4           4.4358    10.5235    46.6803 H            1 APR619   0.0000
    41 H1'          4.1749     6.8570    45.2184 H            1 APR619   0.0000
    42 H2'          3.7871     9.4802    44.2867 H            1 APR619   0.0000
    43 H7           3.9976     7.7383    42.3309 H            1 APR619   0.0000
    44 H3'          5.6373     9.8472    43.2506 H            1 APR619   0.0000
    45 H9           6.0141     7.4874    41.8892 H            1 APR619   0.0000
    46 H4'          7.1204     7.5991    43.7450 H            1 APR619   0.0000
    47 H5'1         6.7251    10.2135    44.4974 H            1 APR619   0.0000
    48 H5'2         8.0086     9.5251    43.7590 H            1 APR619   0.0000
    49 H5D1        10.5592    13.0339    49.2213 H            1 APR619   0.0000
    50 H5D2         9.2541    12.2183    49.7675 H            1 APR619   0.0000
    51 H1D          8.2460    15.1665    53.5942 H            1 APR619   0.0000
    52 H16          6.9243    15.7014    51.1796 H            1 APR619   0.0000
    53 H2D          5.8731    14.0202    52.8845 H            1 APR619   0.0000
    54 H18          6.8883    13.4303    50.9622 H            1 APR619   0.0000
    55 H3D          9.6338    12.1412    53.2798 H            1 APR619   0.0000
    56 H20          8.8031    12.1430    51.3658 H            1 APR619   0.0000
    57 H4D         10.6108    14.0120    51.2458 H            1 APR619   0.0000
@<TRIPOS>BOND
     1    1    2      ar
     2    1    6      ar
     3    2    3      ar
     4    3    4      ar
     5    4    5      ar
     6    4   10       1
     7    5    6      ar
     8    5    8       1
     9    6    7       1
    10    8    9       2
    11    9   10       1
    12   10   11       1
    13   11   12       1
    14   11   16       1
    15   12   13       1
    16   12   14       1
    17   14   15       1
    18   14   17       1
    19   16   17       1
    20   17   18       1
    21   18   19       1
    22   19   20       1
    23   20   21      ar
    24   20   22      ar
    25   20   23       1
    26   23   24       1
    27   24   25      ar
    28   24   26      ar
    29   24   27       1
    30   27   28       1
    31   28   36       1
    32   29   31       1
    33   29   36       1
    34   30   31       1
    35   31   33       1
    36   32   33       1
    37   33   35       1
    38   34   35       1
    39   35   36       1
    40    2   37       1
    41    7   38       1
    42    7   39       1
    43    9   40       1
    44   11   41       1
    45   12   42       1
    46   13   43       1
    47   14   44       1
    48   15   45       1
    49   17   46       1
    50   18   47       1
    51   18   48       1
    52   36   57       1
    53   35   56       1
    54   28   49       1
    55   28   50       1
    56   30   51       1
    57   31   52       1
    58   32   53       1
    59   33   54       1
    60   34   55       1
@<TRIPOS>SUBSTRUCTURE
     1 APR619      1 GROUP             4 A     APR     0 **** APR A 619
