@<TRIPOS>MOLECULE
3lqf_NAD_2_ligand
   70    74     1     0     0
SMALL
NO_CHARGES


@<TRIPOS>ATOM
     1 PA          31.0270    -7.0080    47.2780 P.3          1 NAD257   0.0000
     2 O1A         31.8800    -7.9800    46.5520 O.co2        1 NAD257   0.0000
     3 O2A         29.6220    -7.3840    47.5650 O.co2        1 NAD257  -1.0000
     4 O5B         31.7170    -6.6890    48.7180 O.3          1 NAD257   0.0000
     5 C5B         31.2660    -5.5480    49.4720 C.3          1 NAD257   0.0000
     6 C4B         32.4290    -4.9090    50.2190 C.3          1 NAD257   0.0000
     7 O4B         32.1260    -3.5400    50.6490 O.3          1 NAD257   0.0000
     8 C3B         32.6390    -5.7740    51.4730 C.3          1 NAD257   0.0000
     9 O3B         34.0360    -6.0920    51.6160 O.3          1 NAD257   0.0000
    10 C2B         32.1420    -4.8680    52.5950 C.3          1 NAD257   0.0000
    11 O2B         32.8450    -5.1630    53.8060 O.3          1 NAD257   0.0000
    12 C1B         32.4990    -3.4710    52.0490 C.3          1 NAD257   0.0000
    13 N9A         31.7730    -2.3750    52.7880 N.pl3        1 NAD257   0.0000
    14 C8A         30.4450    -2.1970    52.8510 C.2          1 NAD257   0.0000
    15 N7A         30.1660    -1.1290    53.6040 N.2          1 NAD257   0.0000
    16 C5A         31.3210    -0.6180    54.0230 C.ar         1 NAD257   0.0000
    17 C6A         31.6590     0.4750    54.8230 C.ar         1 NAD257   0.0000
    18 N6A         30.7020     1.2510    55.3350 N.pl3        1 NAD257   0.0000
    19 N1A         32.9630     0.7300    55.0660 N.ar         1 NAD257   0.0000
    20 C2A         33.9180    -0.0420    54.5560 C.ar         1 NAD257   0.0000
    21 N3A         33.6330    -1.0940    53.7900 N.ar         1 NAD257   0.0000
    22 C4A         32.3480    -1.4060    53.5080 C.ar         1 NAD257   0.0000
    23 O3          31.0500    -5.4790    46.5930 O.3          1 NAD257   0.0000
    24 PN          31.6470    -5.0610    45.1040 P.3          1 NAD257   0.0000
    25 O1N         33.1010    -5.3020    45.1360 O.co2        1 NAD257   0.0000
    26 O2N         30.8080    -5.7350    44.0800 O.co2        1 NAD257  -1.0000
    27 O5D         31.3700    -3.4420    45.0350 O.3          1 NAD257   0.0000
    28 C5D         32.4170    -2.5110    44.6530 C.3          1 NAD257   0.0000
    29 C4D         31.8860    -1.1960    44.0280 C.3          1 NAD257   0.0000
    30 O4D         31.3320    -1.3360    42.6540 O.3          1 NAD257   0.0000
    31 C3D         30.7740    -0.6080    44.9030 C.3          1 NAD257   0.0000
    32 O3D         31.0680     0.7640    45.1310 O.3          1 NAD257   0.0000
    33 C2D         29.4990    -0.8050    44.0600 C.3          1 NAD257   0.0000
    34 O2D         28.5090     0.1820    44.3600 O.3          1 NAD257   0.0000
    35 C1D         30.0190    -0.6880    42.6060 C.3          1 NAD257   0.0000
    36 N1N         29.0890    -1.3450    41.6100 N.ar         1 NAD257   1.0000
    37 C2N         28.9170    -2.7630    41.5840 C.ar         1 NAD257   0.0000
    38 C3N         28.0440    -3.3830    40.6690 C.ar         1 NAD257   0.0000
    39 C7N         27.9080    -4.9340    40.6990 C.2          1 NAD257   0.0000
    40 O7N         26.9926    -5.5529    39.8873 O.2          1 NAD257   0.0000
    41 N7N         28.7019    -5.6382    41.5145 N.am         1 NAD257   0.0000
    42 C4N         27.3320    -2.5820    39.7550 C.ar         1 NAD257   0.0000
    43 C5N         27.4780    -1.1880    39.7770 C.ar         1 NAD257   0.0000
    44 C6N         28.3540    -0.5650    40.6760 C.ar         1 NAD257   0.0000
    45 H5B1        30.5733    -5.8417    50.1308 H            1 NAD257   0.0000
    46 H5B2        30.8679    -4.8768    48.8467 H            1 NAD257   0.0000
    47 H4B         33.2518    -4.9186    49.6507 H            1 NAD257   0.0000
    48 H3B         32.0899    -6.6083    51.4229 H            1 NAD257   0.0000
    49 H5          34.5508    -5.6769    50.8659 H            1 NAD257   0.0000
    50 H2B         31.1545    -4.9622    52.7214 H            1 NAD257   0.0000
    51 H7          33.6647    -4.5930    53.8629 H            1 NAD257   0.0000
    52 H1B         33.4856    -3.3263    52.1240 H            1 NAD257   0.0000
    53 H8A         29.7654    -2.7768    52.4016 H            1 NAD257   0.0000
    54 H6A1        30.9459     2.0335    55.9078 H            1 NAD257   0.0000
    55 H6A2        29.7408     1.0501    55.1459 H            1 NAD257   0.0000
    56 H2A         34.8747     0.1726    54.7525 H            1 NAD257   0.0000
    57 H5D1        33.0105    -2.9604    43.9853 H            1 NAD257   0.0000
    58 H5D2        32.9475    -2.2808    45.4689 H            1 NAD257   0.0000
    59 H4D         32.6390    -0.5388    43.9959 H            1 NAD257   0.0000
    60 H3D         30.7057    -1.1037    45.7688 H            1 NAD257   0.0000
    61 H17         31.1656     0.9253    46.1131 H            1 NAD257   0.0000
    62 H2D         29.1259    -1.7197    44.2156 H            1 NAD257   0.0000
    63 H19         28.6022     0.4686    45.3135 H            1 NAD257   0.0000
    64 H1D         30.1323     0.2770    42.3695 H            1 NAD257   0.0000
    65 H2N         29.4285    -3.3287    42.2307 H            1 NAD257   0.0000
    66 H7N1        28.6402    -6.6361    41.5333 H            1 NAD257   0.0000
    67 H7N2        29.3568    -5.1665    42.1049 H            1 NAD257   0.0000
    68 H4N         26.7207    -3.0089    39.0886 H            1 NAD257   0.0000
    69 H5N         26.9478    -0.6284    39.1401 H            1 NAD257   0.0000
    70 H6N         28.4622     0.4290    40.6605 H            1 NAD257   0.0000
@<TRIPOS>BOND
     1    1    2      ar
     2    1    3      ar
     3    1    4       1
     4    1   23       1
     5    4    5       1
     6    5    6       1
     7    6    7       1
     8    6    8       1
     9    7   12       1
    10    8    9       1
    11    8   10       1
    12   10   11       1
    13   10   12       1
    14   12   13       1
    15   13   14       1
    16   13   22       1
    17   14   15       2
    18   15   16       1
    19   16   17      ar
    20   16   22      ar
    21   17   18       1
    22   17   19      ar
    23   19   20      ar
    24   20   21      ar
    25   21   22      ar
    26   23   24       1
    27   24   25      ar
    28   24   26      ar
    29   24   27       1
    30   27   28       1
    31   28   29       1
    32   29   30       1
    33   29   31       1
    34   30   35       1
    35   31   32       1
    36   31   33       1
    37   33   34       1
    38   33   35       1
    39   35   36       1
    40   36   37      ar
    41   36   44      ar
    42   37   38      ar
    43   38   39       1
    44   38   42      ar
    45   39   40       2
    46   39   41      am
    47   42   43      ar
    48   43   44      ar
    49   44   70       1
    50    5   45       1
    51    5   46       1
    52    6   47       1
    53    8   48       1
    54    9   49       1
    55   10   50       1
    56   11   51       1
    57   12   52       1
    58   14   53       1
    59   18   54       1
    60   18   55       1
    61   20   56       1
    62   43   69       1
    63   28   57       1
    64   28   58       1
    65   29   59       1
    66   31   60       1
    67   32   61       1
    68   33   62       1
    69   34   63       1
    70   35   64       1
    71   37   65       1
    72   41   66       1
    73   41   67       1
    74   42   68       1
@<TRIPOS>SUBSTRUCTURE
     1 NAD257      1 GROUP             4 B     NAD     0 **** NAD B 257
