@<TRIPOS>MOLECULE
5f8e_SAH_1_ligand
   46    48     1     0     0
SMALL
NO_CHARGES


@<TRIPOS>ATOM
     1 N           25.7250   -36.1780    19.3510 N.4          1 SAH400   1.0000
     2 CA          26.2550   -35.9350    18.0010 C.3          1 SAH400   0.0000
     3 CB          27.1090   -37.1130    17.5270 C.3          1 SAH400   0.0000
     4 CG          28.3600   -36.5850    16.8220 C.3          1 SAH400   0.0000
     5 SD          29.0370   -37.7600    15.5930 S.3          1 SAH400   0.0000
     6 C           25.0940   -35.7210    17.0280 C.2          1 SAH400   0.0000
     7 O           25.0970   -34.6610    16.3650 O.co2        1 SAH400   0.0000
     8 OXT         24.2310   -36.6230    16.9680 O.co2        1 SAH400  -1.0000
     9 C5'         30.7880   -37.2290    15.5770 C.3          1 SAH400   0.0000
    10 C4'         31.3540   -36.9920    16.9790 C.3          1 SAH400   0.0000
    11 O4'         32.0670   -38.1600    17.4110 O.3          1 SAH400   0.0000
    12 C3'         32.4210   -35.9100    16.9190 C.3          1 SAH400   0.0000
    13 O3'         31.8630   -34.6630    17.3580 O.3          1 SAH400   0.0000
    14 C2'         33.4730   -36.3730    17.9150 C.3          1 SAH400   0.0000
    15 O2'         33.5820   -35.4150    18.9770 O.3          1 SAH400   0.0000
    16 C1'         32.9160   -37.6770    18.4620 C.3          1 SAH400   0.0000
    17 N9          33.9990   -38.6540    18.7110 N.pl3        1 SAH400   0.0000
    18 C8          34.4610   -39.5440    17.8380 C.2          1 SAH400   0.0000
    19 N7          35.4280   -40.2350    18.4340 N.2          1 SAH400   0.0000
    20 C5          35.5640   -39.7740    19.6750 C.ar         1 SAH400   0.0000
    21 C6          36.3860   -40.1290    20.6610 C.ar         1 SAH400   0.0000
    22 N6          37.2340   -41.1180    20.3930 N.pl3        1 SAH400   0.0000
    23 N1          36.3610   -39.5260    21.8560 N.ar         1 SAH400   0.0000
    24 C2          35.4440   -38.4950    22.0680 C.ar         1 SAH400   0.0000
    25 N3          34.5940   -38.1430    21.0170 N.ar         1 SAH400   0.0000
    26 C4          34.6780   -38.7930    19.8460 C.ar         1 SAH400   0.0000
    27 H1          25.1717   -35.3959    19.6376 H            1 SAH400   0.0000
    28 H2          25.1586   -37.0021    19.3434 H            1 SAH400   0.0000
    29 HA          26.8204   -35.1104    18.0179 H            1 SAH400   0.0000
    30 HB1         26.5794   -37.6738    16.8906 H            1 SAH400   0.0000
    31 HB2         27.3790   -37.6671    18.3144 H            1 SAH400   0.0000
    32 HG1         29.0620   -36.4047    17.5110 H            1 SAH400   0.0000
    33 HG2         28.1262   -35.7331    16.3534 H            1 SAH400   0.0000
    34 H5'1        30.8581   -36.3777    15.0570 H            1 SAH400   0.0000
    35 H5'2        31.3321   -37.9387    15.1295 H            1 SAH400   0.0000
    36 H4'         30.6301   -36.7506    17.6252 H            1 SAH400   0.0000
    37 H3'         32.8043   -35.8307    15.9988 H            1 SAH400   0.0000
    38 H12         31.9853   -34.5726    18.3464 H            1 SAH400   0.0000
    39 H2'         34.3554   -36.5172    17.4671 H            1 SAH400   0.0000
    40 H14         34.5160   -35.4181    19.3342 H            1 SAH400   0.0000
    41 H1'         32.3885   -37.5139    19.2957 H            1 SAH400   0.0000
    42 H16         34.1386   -39.6711    16.9000 H            1 SAH400   0.0000
    43 H17         37.8763   -41.4294    21.0933 H            1 SAH400   0.0000
    44 H18         37.2292   -41.5501    19.4912 H            1 SAH400   0.0000
    45 H19         35.3970   -38.0217    22.9477 H            1 SAH400   0.0000
    46 H20         26.4843   -36.3012    19.9900 H            1 SAH400   0.0000
@<TRIPOS>BOND
     1    1    2       1
     2    2    3       1
     3    2    6       1
     4    3    4       1
     5    4    5       1
     6    5    9       1
     7    6    7      ar
     8    6    8      ar
     9    9   10       1
    10   10   11       1
    11   10   12       1
    12   11   16       1
    13   12   13       1
    14   12   14       1
    15   14   15       1
    16   14   16       1
    17   16   17       1
    18   17   18       1
    19   17   26       1
    20   18   19       2
    21   19   20       1
    22   20   21      ar
    23   20   26      ar
    24   21   22       1
    25   21   23      ar
    26   23   24      ar
    27   24   25      ar
    28   25   26      ar
    29    1   27       1
    30    1   28       1
    31    2   29       1
    32    3   30       1
    33    3   31       1
    34    4   32       1
    35    4   33       1
    36    1   46       1
    37    9   34       1
    38    9   35       1
    39   10   36       1
    40   12   37       1
    41   13   38       1
    42   14   39       1
    43   15   40       1
    44   16   41       1
    45   18   42       1
    46   22   43       1
    47   22   44       1
    48   24   45       1
@<TRIPOS>SUBSTRUCTURE
     1 SAH400      1 GROUP             4 A     SAH     0 **** SAH A 400
