@<TRIPOS>MOLECULE
2cda_NAP_2_ligand
   73    77     1     0     0
SMALL
NO_CHARGES


@<TRIPOS>ATOM
     1 PA          38.7840    22.1280    59.5160 P.3          1 NAP1367   0.0000
     2 O1A         39.3260    21.6920    60.8620 O.co2        1 NAP1367   0.0000
     3 O2A         39.0820    23.4350    58.9180 O.co2        1 NAP1367  -1.0000
     4 O5B         37.1990    21.9480    59.4870 O.3          1 NAP1367   0.0000
     5 C5B         36.6300    20.7530    60.0880 C.3          1 NAP1367   0.0000
     6 C4B         35.1070    20.9680    60.2450 C.3          1 NAP1367   0.0000
     7 O4B         34.5130    19.9400    61.0890 O.3          1 NAP1367   0.0000
     8 C3B         34.9250    22.3270    60.9310 C.3          1 NAP1367   0.0000
     9 O3B         34.0540    23.1190    60.1280 O.3          1 NAP1367   0.0000
    10 C2B         34.3040    21.9860    62.2920 C.3          1 NAP1367   0.0000
    11 O2B         33.4000    23.0630    62.7180 O.3          1 NAP1367   0.0000
    12 C1B         33.6420    20.6200    61.9720 C.3          1 NAP1367   0.0000
    13 N9A         33.4500    19.6320    63.0630 N.pl3        1 NAP1367   0.0000
    14 C8A         34.2600    19.3590    64.1080 C.2          1 NAP1367   0.0000
    15 N7A         33.6780    18.4210    64.8670 N.2          1 NAP1367   0.0000
    16 C5A         32.5000    18.0930    64.3100 C.ar         1 NAP1367   0.0000
    17 C6A         31.4530    17.2070    64.6250 C.ar         1 NAP1367   0.0000
    18 N6A         31.5200    16.4120    65.7110 N.pl3        1 NAP1367   0.0000
    19 N1A         30.3660    17.1520    63.8020 N.ar         1 NAP1367   0.0000
    20 C2A         30.2800    17.9110    62.7280 C.ar         1 NAP1367   0.0000
    21 N3A         31.2610    18.7480    62.4040 N.ar         1 NAP1367   0.0000
    22 C4A         32.3610    18.8710    63.1650 C.ar         1 NAP1367   0.0000
    23 O3          39.2420    20.8840    58.5650 O.3          1 NAP1367   0.0000
    24 PN          39.4310    20.9170    56.9450 P.3          1 NAP1367   0.0000
    25 O1N         40.6620    21.6080    56.5170 O.co2        1 NAP1367   0.0000
    26 O2N         38.0880    21.2730    56.3390 O.co2        1 NAP1367  -1.0000
    27 O5D         39.8190    19.2740    56.8620 O.3          1 NAP1367   0.0000
    28 C5D         38.9000    18.2850    57.2850 C.3          1 NAP1367   0.0000
    29 C4D         39.6880    17.0450    57.5710 C.3          1 NAP1367   0.0000
    30 O4D         40.1080    16.7110    56.2320 O.3          1 NAP1367   0.0000
    31 C3D         40.9860    17.2580    58.3980 C.3          1 NAP1367   0.0000
    32 O3D         41.1810    16.1490    59.2910 O.3          1 NAP1367   0.0000
    33 C2D         42.1120    17.2370    57.3140 C.3          1 NAP1367   0.0000
    34 O2D         43.3410    16.7300    57.7970 O.3          1 NAP1367   0.0000
    35 C1D         41.5090    16.2590    56.3120 C.3          1 NAP1367   0.0000
    36 N1N         42.1400    16.2450    54.9690 N.ar         1 NAP1367   1.0000
    37 C2N         42.2200    15.0080    54.2980 C.ar         1 NAP1367   0.0000
    38 C3N         42.7890    14.9470    53.0300 C.ar         1 NAP1367   0.0000
    39 C7N         42.8430    13.6160    52.3030 C.2          1 NAP1367   0.0000
    40 O7N         43.4230    13.5170    51.2250 O.2          1 NAP1367   0.0000
    41 N7N         42.2300    12.6040    52.9060 N.am         1 NAP1367   0.0000
    42 C4N         43.3030    16.1050    52.4370 C.ar         1 NAP1367   0.0000
    43 C5N         43.2220    17.3310    53.0980 C.ar         1 NAP1367   0.0000
    44 C6N         42.6340    17.4120    54.3490 C.ar         1 NAP1367   0.0000
    45 P2B         33.9480    24.7440    62.9700 P.3          1 NAP1367   0.0000
    46 O1X         35.5800    24.7720    63.3710 O.co2        1 NAP1367   0.0000
    47 O2X         33.8840    25.5520    61.5430 O.co2        1 NAP1367  -1.0000
    48 O3X         33.1770    25.5210    64.0090 O.co2        1 NAP1367  -1.0000
    49 H5B1        37.0436    20.5955    60.9847 H            1 NAP1367   0.0000
    50 H5B2        36.8012    19.9635    59.4986 H            1 NAP1367   0.0000
    51 H4B         34.6659    20.9737    59.3475 H            1 NAP1367   0.0000
    52 H3B         35.8070    22.7830    61.0500 H            1 NAP1367   0.0000
    53 H5          33.9224    24.0115    60.5595 H            1 NAP1367   0.0000
    54 H2B         35.0264    21.8612    62.9722 H            1 NAP1367   0.0000
    55 H1B         32.7672    20.7780    61.5139 H            1 NAP1367   0.0000
    56 H8A         35.1467    19.7858    64.2858 H            1 NAP1367   0.0000
    57 H6A1        30.7674    15.7878    65.9209 H            1 NAP1367   0.0000
    58 H6A2        32.3223    16.4462    66.3070 H            1 NAP1367   0.0000
    59 H2A         29.4663    17.8567    62.1492 H            1 NAP1367   0.0000
    60 H5D1        38.2310    18.1074    56.5633 H            1 NAP1367   0.0000
    61 H5D2        38.4260    18.5884    58.1116 H            1 NAP1367   0.0000
    62 H4D         39.1141    16.3276    57.9659 H            1 NAP1367   0.0000
    63 H3D         40.9680    18.1276    58.8915 H            1 NAP1367   0.0000
    64 H16         42.0172    16.2907    59.8208 H            1 NAP1367   0.0000
    65 H2D         42.2329    18.1413    56.9046 H            1 NAP1367   0.0000
    66 H18         44.0185    16.7416    57.0615 H            1 NAP1367   0.0000
    67 H1D         41.5351    15.3364    56.6969 H            1 NAP1367   0.0000
    68 H2N         41.8693    14.1779    54.7315 H            1 NAP1367   0.0000
    69 H7N1        42.2262    11.6980    52.4828 H            1 NAP1367   0.0000
    70 H7N2        41.7722    12.7479    53.7833 H            1 NAP1367   0.0000
    71 H4N         43.7308    16.0538    51.5346 H            1 NAP1367   0.0000
    72 H5N         43.5901    18.1546    52.6665 H            1 NAP1367   0.0000
    73 H6N         42.5597    18.2954    54.8118 H            1 NAP1367   0.0000
@<TRIPOS>BOND
     1    1    2      ar
     2    1    3      ar
     3    1    4       1
     4    1   23       1
     5    4    5       1
     6    5    6       1
     7    6    7       1
     8    6    8       1
     9    7   12       1
    10    8    9       1
    11    8   10       1
    12   10   11       1
    13   10   12       1
    14   11   45       1
    15   12   13       1
    16   13   14       1
    17   13   22       1
    18   14   15       2
    19   15   16       1
    20   16   17      ar
    21   16   22      ar
    22   17   18       1
    23   17   19      ar
    24   19   20      ar
    25   20   21      ar
    26   21   22      ar
    27   23   24       1
    28   24   25      ar
    29   24   26      ar
    30   24   27       1
    31   27   28       1
    32   28   29       1
    33   29   30       1
    34   29   31       1
    35   30   35       1
    36   31   32       1
    37   31   33       1
    38   33   34       1
    39   33   35       1
    40   35   36       1
    41   36   37      ar
    42   36   44      ar
    43   37   38      ar
    44   38   39       1
    45   38   42      ar
    46   39   40       2
    47   39   41      am
    48   42   43      ar
    49   43   44      ar
    50   45   46      ar
    51   45   47      ar
    52   45   48      ar
    53   43   72       1
    54    5   49       1
    55    5   50       1
    56    6   51       1
    57    8   52       1
    58    9   53       1
    59   10   54       1
    60   12   55       1
    61   14   56       1
    62   18   57       1
    63   18   58       1
    64   20   59       1
    65   44   73       1
    66   28   60       1
    67   28   61       1
    68   29   62       1
    69   31   63       1
    70   32   64       1
    71   33   65       1
    72   34   66       1
    73   35   67       1
    74   37   68       1
    75   41   69       1
    76   41   70       1
    77   42   71       1
@<TRIPOS>SUBSTRUCTURE
     1 NAP1367     1 GROUP             4 B     NAP     0 **** NAP B1367
