@<TRIPOS>MOLECULE
3v3v_MYU_1_ligand
   31    33     1     0     0
SMALL
NO_CHARGES


@<TRIPOS>ATOM
     1 O20         33.9820    45.1740     5.6980 O.3          1 MYU401   0.0000
     2 C11         33.0460    44.7100     5.0410 C.2          1 MYU401   0.0000
     3 C12         31.9470    45.5230     4.7740 C.2          1 MYU401   0.0000
     4 O19         31.9890    46.7910     5.2910 O.3          1 MYU401   0.0000
     5 C10         33.0380    43.3880     4.5380 C.2          1 MYU401   0.0000
     6 C13         34.0740    42.4480     4.7650 C.2          1 MYU401   0.0000
     7 O21         35.1760    42.8070     5.5020 O.2          1 MYU401   0.0000
     8 C9          31.9330    42.9350     3.7830 C.2          1 MYU401   0.0000
     9 C16         31.8680    41.6280     3.2680 C.2          1 MYU401   0.0000
    10 C15         32.9020    40.7230     3.4930 C.2          1 MYU401   0.0000
    11 O22         32.8950    39.4420     3.0180 O.2          1 MYU401   0.0000
    12 C14         34.0060    41.1360     4.2420 C.2          1 MYU401   0.0000
    13 O23         35.0300    40.2390     4.4610 O.2          1 MYU401   0.0000
    14 O8          30.8800    43.7950     3.5400 O.3          1 MYU401   0.0000
    15 C7          30.8460    45.0970     3.9930 C.2          1 MYU401   0.0000
    16 C6          29.6290    45.7820     3.7750 C.ar         1 MYU401   0.0000
    17 C5          29.3570    46.9350     4.5110 C.ar         1 MYU401   0.0000
    18 C4          28.1510    47.5920     4.3460 C.ar         1 MYU401   0.0000
    19 O17         27.8480    48.7270     5.0250 O.3          1 MYU401   0.0000
    20 C3          27.1920    47.1040     3.4650 C.ar         1 MYU401   0.0000
    21 O18         26.0510    47.8500     3.3920 O.3          1 MYU401   0.0000
    22 C2          27.4160    45.9340     2.7260 C.ar         1 MYU401   0.0000
    23 C1          28.6360    45.2770     2.9060 C.ar         1 MYU401   0.0000
    24 H1          33.9422    46.1172     6.0278 H            1 MYU401   0.0000
    25 H2          32.7800    47.0866     5.8267 H            1 MYU401   0.0000
    26 H3          31.0707    41.3456     2.7345 H            1 MYU401   0.0000
    27 H4          30.0337    47.2867     5.1579 H            1 MYU401   0.0000
    28 H5          28.5067    49.1149     5.6698 H            1 MYU401   0.0000
    29 H6          25.9572    48.6759     3.9480 H            1 MYU401   0.0000
    30 H7          26.7270    45.5820     2.0924 H            1 MYU401   0.0000
    31 H8          28.8107    44.4280     2.4072 H            1 MYU401   0.0000
@<TRIPOS>BOND
     1    1    2       1
     2    2    3       1
     3    2    5       2
     4    3    4       1
     5    3   15       2
     6    5    6       1
     7    5    8       1
     8    6    7       2
     9    6   12       1
    10    8    9       2
    11    8   14       1
    12    9   10       1
    13   10   11       2
    14   10   12       1
    15   12   13       2
    16   14   15       1
    17   15   16       1
    18   16   17      ar
    19   16   23      ar
    20   17   18      ar
    21   18   19       1
    22   18   20      ar
    23   20   21       1
    24   20   22      ar
    25   22   23      ar
    26    1   24       1
    27    4   25       1
    28    9   26       1
    29   17   27       1
    30   19   28       1
    31   21   29       1
    32   22   30       1
    33   23   31       1
@<TRIPOS>SUBSTRUCTURE
     1 MYU401      1 GROUP             4 A     MYU     0 **** MYU A 401
