@<TRIPOS>MOLECULE
1o9b_NAI_2_ligand
   71    75     1     0     0
SMALL
NO_CHARGES


@<TRIPOS>ATOM
     1 PA         136.6300    27.0230    -6.6960 P.3          1 NAI301   0.0000
     2 O2A        135.5510    26.1330    -7.1630 O.co2        1 NAI301   0.0000
     3 O1A        136.8410    28.1390    -7.6100 O.co2        1 NAI301  -1.0000
     4 O5B        138.0400    26.3100    -6.5790 O.3          1 NAI301   0.0000
     5 C5B        138.1010    24.9230    -6.1450 C.3          1 NAI301   0.0000
     6 C4B        139.4620    24.3400    -6.4410 C.3          1 NAI301   0.0000
     7 O4B        139.3210    23.0150    -5.9260 O.3          1 NAI301   0.0000
     8 C3B        139.8140    24.1280    -7.9380 C.3          1 NAI301   0.0000
     9 O3B        141.0830    24.7100    -8.2410 O.3          1 NAI301   0.0000
    10 C2B        139.7820    22.5900    -8.0930 C.3          1 NAI301   0.0000
    11 O2B        140.8010    22.0980    -8.9820 O.3          1 NAI301   0.0000
    12 C1B        140.0160    22.1070    -6.7100 C.3          1 NAI301   0.0000
    13 N9A        139.4150    20.8340    -6.4850 N.pl3        1 NAI301   0.0000
    14 C8A        138.0780    20.5310    -6.3720 C.2          1 NAI301   0.0000
    15 N7A        137.8460    19.2200    -6.1480 N.2          1 NAI301   0.0000
    16 C5A        139.1350    18.6860    -6.1180 C.ar         1 NAI301   0.0000
    17 C6A        139.5950    17.3440    -5.9210 C.ar         1 NAI301   0.0000
    18 N6A        138.7650    16.3240    -5.7060 N.pl3        1 NAI301   0.0000
    19 N1A        140.9660    17.1520    -5.9510 N.ar         1 NAI301   0.0000
    20 C2A        141.8210    18.2260    -6.1750 C.ar         1 NAI301   0.0000
    21 N3A        141.4860    19.4940    -6.3690 N.ar         1 NAI301   0.0000
    22 C4A        140.1180    19.6650    -6.3350 C.ar         1 NAI301   0.0000
    23 O3         136.2980    27.5590    -5.2650 O.3          1 NAI301   0.0000
    24 PN         137.0360    28.5510    -4.2260 P.3          1 NAI301   0.0000
    25 O1N        136.1000    29.7230    -4.1940 O.co2        1 NAI301   0.0000
    26 O2N        138.3500    28.9400    -4.7580 O.co2        1 NAI301  -1.0000
    27 O5D        137.0180    27.9420    -2.7790 O.3          1 NAI301   0.0000
    28 C5D        137.9680    26.9240    -2.4170 C.3          1 NAI301   0.0000
    29 C4D        137.7500    26.6060    -0.9520 C.3          1 NAI301   0.0000
    30 O4D        138.2240    27.7550    -0.1740 O.3          1 NAI301   0.0000
    31 C3D        136.2980    26.3170    -0.5110 C.3          1 NAI301   0.0000
    32 O3D        136.1940    25.1790     0.3710 O.3          1 NAI301   0.0000
    33 C2D        135.8700    27.6320     0.1640 C.3          1 NAI301   0.0000
    34 O2D        134.8560    27.3890     1.1710 O.3          1 NAI301   0.0000
    35 C1D        137.1850    28.1720     0.7070 C.3          1 NAI301   0.0000
    36 N1N        137.1940    29.6790     0.8650 N.pl3        1 NAI301   0.0000
    37 C2N        137.3400    30.1250     2.1820 C.2          1 NAI301   0.0000
    38 C3N        137.3500    31.5090     2.3780 C.2          1 NAI301   0.0000
    39 C7N        137.5130    32.1250     3.7680 C.2          1 NAI301   0.0000
    40 O7N        137.5010    33.3440     3.8610 O.2          1 NAI301   0.0000
    41 N7N        137.6710    31.3470     4.8580 N.am         1 NAI301   0.0000
    42 C4N        137.2270    32.4590     1.2630 C.3          1 NAI301   0.0000
    43 C5N        137.0890    31.8800    -0.0260 C.2          1 NAI301   0.0000
    44 C6N        137.0620    30.5150    -0.2970 C.2          1 NAI301   0.0000
    45 H5B1       137.4036    24.3949    -6.6294 H            1 NAI301   0.0000
    46 H5B2       137.9297    24.8776    -5.1608 H            1 NAI301   0.0000
    47 H4B        140.1844    24.8411    -5.9644 H            1 NAI301   0.0000
    48 H3B        139.1073    24.5403    -8.5129 H            1 NAI301   0.0000
    49 H5         141.7043    24.0004    -8.5734 H            1 NAI301   0.0000
    50 H2B        138.8802    22.2966    -8.4101 H            1 NAI301   0.0000
    51 H7         140.3723    21.6173    -9.7469 H            1 NAI301   0.0000
    52 H1B        140.9902    22.0978    -6.4845 H            1 NAI301   0.0000
    53 H8A        137.3509    21.2133    -6.4481 H            1 NAI301   0.0000
    54 H6A1       139.1294    15.4023    -5.5734 H            1 NAI301   0.0000
    55 H6A2       137.7777    16.4803    -5.6773 H            1 NAI301   0.0000
    56 H2A        142.7990    18.0182    -6.1916 H            1 NAI301   0.0000
    57 H5D1       138.8995    27.2587    -2.5597 H            1 NAI301   0.0000
    58 H5D2       137.8196    26.1047    -2.9709 H            1 NAI301   0.0000
    59 H4D        138.3129    25.8139    -0.7160 H            1 NAI301   0.0000
    60 H3D        135.7315    26.1610    -1.3202 H            1 NAI301   0.0000
    61 H17        135.2365    25.0391     0.6232 H            1 NAI301   0.0000
    62 H2D        135.5110    28.2601    -0.5264 H            1 NAI301   0.0000
    63 H19        134.5935    28.2555     1.5956 H            1 NAI301   0.0000
    64 H1D        137.3482    27.7604     1.6036 H            1 NAI301   0.0000
    65 H2N        137.4326    29.4859     2.9455 H            1 NAI301   0.0000
    66 H7N1       137.7763    31.7656     5.7601 H            1 NAI301   0.0000
    67 H7N2       137.6828    30.3515     4.7643 H            1 NAI301   0.0000
    68 H4N1       138.0461    33.0326     1.2562 H            1 NAI301   0.0000
    69 H4N2       136.4226    33.0286     1.4318 H            1 NAI301   0.0000
    70 H5N        137.0043    32.5040    -0.8028 H            1 NAI301   0.0000
    71 H6N        136.9595    30.1472    -1.2212 H            1 NAI301   0.0000
@<TRIPOS>BOND
     1    1    2      ar
     2    1    3      ar
     3    1    4       1
     4    1   23       1
     5    4    5       1
     6    5    6       1
     7    6    7       1
     8    6    8       1
     9    7   12       1
    10    8    9       1
    11    8   10       1
    12   10   11       1
    13   10   12       1
    14   12   13       1
    15   13   14       1
    16   13   22       1
    17   14   15       2
    18   15   16       1
    19   16   17      ar
    20   16   22      ar
    21   17   18       1
    22   17   19      ar
    23   19   20      ar
    24   20   21      ar
    25   21   22      ar
    26   23   24       1
    27   24   25      ar
    28   24   26      ar
    29   24   27       1
    30   27   28       1
    31   28   29       1
    32   29   30       1
    33   29   31       1
    34   30   35       1
    35   31   32       1
    36   31   33       1
    37   33   34       1
    38   33   35       1
    39   35   36       1
    40   36   37       1
    41   36   44       1
    42   37   38       2
    43   38   39       1
    44   38   42       1
    45   39   40       2
    46   39   41      am
    47   42   43       1
    48   43   44       2
    49   44   71       1
    50    5   45       1
    51    5   46       1
    52    6   47       1
    53    8   48       1
    54    9   49       1
    55   10   50       1
    56   11   51       1
    57   12   52       1
    58   14   53       1
    59   18   54       1
    60   18   55       1
    61   20   56       1
    62   43   70       1
    63   28   57       1
    64   28   58       1
    65   29   59       1
    66   31   60       1
    67   32   61       1
    68   33   62       1
    69   34   63       1
    70   35   64       1
    71   37   65       1
    72   41   66       1
    73   41   67       1
    74   42   68       1
    75   42   69       1
@<TRIPOS>SUBSTRUCTURE
     1 NAI301      1 GROUP             4 B     NAI     0 **** NAI B 301
