@<TRIPOS>MOLECULE
3tx1_FAD_1_ligand
   84    89     1     0     0
SMALL
NO_CHARGES


@<TRIPOS>ATOM
     1 PA         -20.5580    36.4630    -2.8420 P.3          1 FAD299   0.0000
     2 O1A        -20.3050    37.8910    -3.1910 O.co2        1 FAD299   0.0000
     3 O2A        -21.9280    36.0420    -2.3930 O.co2        1 FAD299  -1.0000
     4 O5B        -19.5930    36.0380    -1.6410 O.3          1 FAD299   0.0000
     5 C5B        -19.3860    34.6300    -1.5960 C.3          1 FAD299   0.0000
     6 C4B        -18.1470    34.2600    -0.8080 C.3          1 FAD299   0.0000
     7 O4B        -17.0090    34.2360    -1.6550 O.3          1 FAD299   0.0000
     8 C3B        -17.7850    35.1770     0.3390 C.3          1 FAD299   0.0000
     9 O3B        -17.0370    34.3700     1.2820 O.3          1 FAD299   0.0000
    10 C2B        -16.8380    36.1510    -0.3610 C.3          1 FAD299   0.0000
    11 O2B        -15.9280    36.9160     0.4530 O.3          1 FAD299   0.0000
    12 C1B        -16.0550    35.1930    -1.2100 C.3          1 FAD299   0.0000
    13 N9A        -15.5820    35.8600    -2.4100 N.pl3        1 FAD299   0.0000
    14 C8A        -16.3050    36.5190    -3.3280 C.2          1 FAD299   0.0000
    15 N7A        -15.4810    36.9080    -4.3410 N.2          1 FAD299   0.0000
    16 C5A        -14.2210    36.4890    -4.0890 C.ar         1 FAD299   0.0000
    17 C6A        -12.8680    36.5830    -4.6970 C.ar         1 FAD299   0.0000
    18 N6A        -12.6190    37.2310    -5.8690 N.pl3        1 FAD299   0.0000
    19 N1A        -11.8530    35.9830    -4.0390 N.ar         1 FAD299   0.0000
    20 C2A        -12.0240    35.3300    -2.8970 C.ar         1 FAD299   0.0000
    21 N3A        -13.1950    35.2300    -2.2660 N.ar         1 FAD299   0.0000
    22 C4A        -14.3070    35.7820    -2.8010 C.ar         1 FAD299   0.0000
    23 N1         -24.2870    28.0230    -5.6330 N.2          1 FAD299   0.0000
    24 C2         -24.0040    26.7940    -6.1300 C.2          1 FAD299   0.0000
    25 O2         -22.9190    26.2580    -5.8500 O.2          1 FAD299   0.0000
    26 N3         -24.8130    26.1100    -6.9510 N.pl3        1 FAD299   0.0000
    27 C4         -26.0010    26.5530    -7.3380 C.2          1 FAD299   0.0000
    28 O4         -26.7470    25.8680    -8.0750 O.2          1 FAD299   0.0000
    29 C4X        -26.3800    27.8820    -6.8370 C.2          1 FAD299   0.0000
    30 N5         -27.5520    28.4070    -7.1820 N.2          1 FAD299   0.0000
    31 C5X        -27.9470    29.6140    -6.7510 C.ar         1 FAD299   0.0000
    32 C6         -29.1760    30.0970    -7.1730 C.ar         1 FAD299   0.0000
    33 C7         -29.6060    31.3370    -6.7800 C.ar         1 FAD299   0.0000
    34 C7M        -30.9510    31.8420    -7.2330 C.3          1 FAD299   0.0000
    35 C8         -28.7070    32.1280    -5.9100 C.ar         1 FAD299   0.0000
    36 C8M        -29.1040    33.4770    -5.4300 C.3          1 FAD299   0.0000
    37 C9         -27.4930    31.6500    -5.4970 C.ar         1 FAD299   0.0000
    38 C9A        -27.0740    30.4010    -5.8860 C.ar         1 FAD299   0.0000
    39 N10        -25.8140    29.8870    -5.4930 N.pl3        1 FAD299   0.0000
    40 C10        -25.4460    28.6110    -5.9580 C.2          1 FAD299   0.0000
    41 C1'        -24.9390    30.6620    -4.5940 C.3          1 FAD299   0.0000
    42 C2'        -23.9850    31.5470    -5.3630 C.3          1 FAD299   0.0000
    43 O2'        -24.4400    31.7150    -6.7030 O.3          1 FAD299   0.0000
    44 C3'        -22.5990    30.9340    -5.4320 C.3          1 FAD299   0.0000
    45 O3'        -22.2090    30.6660    -4.0910 O.3          1 FAD299   0.0000
    46 C4'        -21.6300    31.9180    -6.0810 C.3          1 FAD299   0.0000
    47 O4'        -20.4880    31.2440    -6.6290 O.3          1 FAD299   0.0000
    48 C5'        -21.2210    33.0440    -5.1480 C.3          1 FAD299   0.0000
    49 O5'        -20.8030    34.1160    -5.9590 O.3          1 FAD299   0.0000
    50 P          -20.6580    35.6080    -5.4590 P.3          1 FAD299   0.0000
    51 O1P        -19.7100    36.2350    -6.4160 O.co2        1 FAD299   0.0000
    52 O2P        -22.0620    36.0980    -5.3550 O.co2        1 FAD299  -1.0000
    53 O3P        -20.0650    35.5050    -4.0140 O.3          1 FAD299   0.0000
    54 H5B1       -19.2872    34.2888    -2.5308 H            1 FAD299   0.0000
    55 H5B2       -20.1809    34.2010    -1.1669 H            1 FAD299   0.0000
    56 H4B        -18.2780    33.3398    -0.4392 H            1 FAD299   0.0000
    57 H3B        -18.5788    35.6263     0.7489 H            1 FAD299   0.0000
    58 H5         -16.7715    34.9325     2.0650 H            1 FAD299   0.0000
    59 H2B        -17.3634    36.7674    -0.9475 H            1 FAD299   0.0000
    60 H7         -16.1037    37.8917     0.3224 H            1 FAD299   0.0000
    61 H1B        -15.3078    34.7666    -0.7002 H            1 FAD299   0.0000
    62 H8A        -17.2879    36.6958    -3.2771 H            1 FAD299   0.0000
    63 H6A1       -11.6886    37.2641    -6.2341 H            1 FAD299   0.0000
    64 H6A2       -13.3666    37.6736    -6.3643 H            1 FAD299   0.0000
    65 H2A        -11.2281    34.8866    -2.4848 H            1 FAD299   0.0000
    66 H13        -24.5049    25.2206    -7.2887 H            1 FAD299   0.0000
    67 H14        -29.7523    29.5368    -7.7680 H            1 FAD299   0.0000
    68 H7M1       -31.1071    32.7562    -6.8589 H            1 FAD299   0.0000
    69 H7M2       -30.9727    31.8824    -8.2319 H            1 FAD299   0.0000
    70 H7M3       -31.6661    31.2226    -6.9088 H            1 FAD299   0.0000
    71 H8M1       -28.3756    33.8553    -4.8587 H            1 FAD299   0.0000
    72 H8M2       -29.2585    34.0778    -6.2143 H            1 FAD299   0.0000
    73 H8M3       -29.9451    33.4059    -4.8939 H            1 FAD299   0.0000
    74 H21        -26.9094    32.2115    -4.9104 H            1 FAD299   0.0000
    75 H1'1       -24.4093    30.0271    -4.0316 H            1 FAD299   0.0000
    76 H1'2       -25.5077    31.2352    -4.0040 H            1 FAD299   0.0000
    77 H2'        -23.9301    32.4406    -4.9174 H            1 FAD299   0.0000
    78 H25        -24.6007    32.6858    -6.8812 H            1 FAD299   0.0000
    79 H3'        -22.6264    30.0835    -5.9572 H            1 FAD299   0.0000
    80 H27        -21.5975    29.8750    -4.0735 H            1 FAD299   0.0000
    81 H4'        -22.1143    32.3386    -6.8482 H            1 FAD299   0.0000
    82 H29        -19.8738    31.9140    -7.0459 H            1 FAD299   0.0000
    83 H5'1       -20.4705    32.7462    -4.5580 H            1 FAD299   0.0000
    84 H5'2       -21.9982    33.3224    -4.5837 H            1 FAD299   0.0000
@<TRIPOS>BOND
     1    1    2      ar
     2    1    3      ar
     3    1    4       1
     4    1   53       1
     5    4    5       1
     6    5    6       1
     7    6    7       1
     8    6    8       1
     9    7   12       1
    10    8    9       1
    11    8   10       1
    12   10   11       1
    13   10   12       1
    14   12   13       1
    15   13   14       1
    16   13   22       1
    17   14   15       2
    18   15   16       1
    19   16   17      ar
    20   16   22      ar
    21   17   18       1
    22   17   19      ar
    23   19   20      ar
    24   20   21      ar
    25   21   22      ar
    26   23   24       1
    27   23   40       2
    28   24   25       2
    29   24   26       1
    30   26   27       1
    31   27   28       2
    32   27   29       1
    33   29   30       2
    34   29   40       1
    35   30   31       1
    36   31   32      ar
    37   31   38      ar
    38   32   33      ar
    39   33   34       1
    40   33   35      ar
    41   35   36       1
    42   35   37      ar
    43   37   38      ar
    44   38   39       1
    45   39   40       1
    46   39   41       1
    47   41   42       1
    48   42   43       1
    49   42   44       1
    50   44   45       1
    51   44   46       1
    52   46   47       1
    53   46   48       1
    54   48   49       1
    55   49   50       1
    56   50   51      ar
    57   50   52      ar
    58   50   53       1
    59   48   84       1
    60    5   54       1
    61    5   55       1
    62    6   56       1
    63    8   57       1
    64    9   58       1
    65   10   59       1
    66   11   60       1
    67   12   61       1
    68   14   62       1
    69   18   63       1
    70   18   64       1
    71   20   65       1
    72   26   66       1
    73   32   67       1
    74   34   68       1
    75   34   69       1
    76   34   70       1
    77   36   71       1
    78   36   72       1
    79   36   73       1
    80   37   74       1
    81   41   75       1
    82   41   76       1
    83   42   77       1
    84   43   78       1
    85   44   79       1
    86   45   80       1
    87   46   81       1
    88   47   82       1
    89   48   83       1
@<TRIPOS>SUBSTRUCTURE
     1 FAD299      1 GROUP             4 A     FAD     0 **** FAD A 299
