@<TRIPOS>MOLECULE
2pkn_ACP_1_ligand
   45    47     1     0     0
SMALL
NO_CHARGES


@<TRIPOS>ATOM
     1 PG          18.5460    67.0430    12.2540 P.3          1 ACP325   0.0000
     2 O1G         17.5470    66.9650    13.3930 O.co2        1 ACP325   0.0000
     3 O2G         19.2890    65.7440    12.0490 O.co2        1 ACP325  -1.0000
     4 O3G         19.4070    68.2900    12.2390 O.co2        1 ACP325  -1.0000
     5 PB          15.8820    66.7950    10.8560 P.3          1 ACP325   0.0000
     6 O1B         15.7530    65.2990    10.6470 O.co2        1 ACP325   0.0000
     7 O2B         15.2980    67.3860    12.1220 O.co2        1 ACP325  -1.0000
     8 C3B         17.6240    67.2610    10.7090 C.3          1 ACP325   0.0000
     9 PA          15.2790    67.2580     8.0730 P.3          1 ACP325   0.0000
    10 O1A         16.4010    66.2800     7.8140 O.co2        1 ACP325   0.0000
    11 O2A         13.8680    66.9240     7.6320 O.co2        1 ACP325  -1.0000
    12 O3A         15.1550    67.5920     9.6490 O.3          1 ACP325   0.0000
    13 O5'         15.7480    68.6560     7.4140 O.3          1 ACP325   0.0000
    14 C5'         15.0500    69.8830     7.6480 C.3          1 ACP325   0.0000
    15 C4'         15.0030    70.7140     6.3690 C.3          1 ACP325   0.0000
    16 O4'         16.3140    70.9050     5.8280 O.3          1 ACP325   0.0000
    17 C3'         14.1970    70.0900     5.2280 C.3          1 ACP325   0.0000
    18 O3'         12.7900    70.3190     5.3520 O.3          1 ACP325   0.0000
    19 C2'         14.8210    70.7560     4.0080 C.3          1 ACP325   0.0000
    20 O2'         14.2660    72.0630     3.7550 O.3          1 ACP325   0.0000
    21 C1'         16.2940    70.8930     4.3940 C.3          1 ACP325   0.0000
    22 N9          17.0260    69.7300     3.7960 N.pl3        1 ACP325   0.0000
    23 C8          17.1760    68.4950     4.3280 C.2          1 ACP325   0.0000
    24 N7          17.8670    67.6690     3.4910 N.2          1 ACP325   0.0000
    25 C5          18.1670    68.3770     2.3860 C.ar         1 ACP325   0.0000
    26 C6          18.8740    68.1210     1.1020 C.ar         1 ACP325   0.0000
    27 N6          19.4290    66.9070     0.8310 N.pl3        1 ACP325   0.0000
    28 N1          18.9580    69.1430     0.2100 N.ar         1 ACP325   0.0000
    29 C2          18.4300    70.3560     0.4590 C.ar         1 ACP325   0.0000
    30 N3          17.7750    70.6540     1.6020 N.ar         1 ACP325   0.0000
    31 C4          17.6100    69.7300     2.5870 C.ar         1 ACP325   0.0000
    32 H3B1        18.0473    66.6941    10.0023 H            1 ACP325   0.0000
    33 H3B2        17.6753    68.2228    10.4399 H            1 ACP325   0.0000
    34 H5'1        15.5221    70.4009     8.3614 H            1 ACP325   0.0000
    35 H5'2        14.1168    69.6808     7.9452 H            1 ACP325   0.0000
    36 H4'         14.6124    71.6092     6.5838 H            1 ACP325   0.0000
    37 H3'         14.3724    69.1060     5.1961 H            1 ACP325   0.0000
    38 H7          12.3137    69.8916     4.5836 H            1 ACP325   0.0000
    39 H2'         14.7232    70.1721     3.2021 H            1 ACP325   0.0000
    40 H9          14.7036    72.4605     2.9485 H            1 ACP325   0.0000
    41 H1'         16.6639    71.7513     4.0382 H            1 ACP325   0.0000
    42 H11         16.8241    68.2219     5.2233 H            1 ACP325   0.0000
    43 H12         19.9000    66.7553    -0.0380 H            1 ACP325   0.0000
    44 H13         19.3655    66.1674     1.5011 H            1 ACP325   0.0000
    45 H14         18.5273    71.0697    -0.2346 H            1 ACP325   0.0000
@<TRIPOS>BOND
     1    1    2      ar
     2    1    3      ar
     3    1    4      ar
     4    1    8       1
     5    5    6      ar
     6    5    7      ar
     7    5    8       1
     8    5   12       1
     9    9   10      ar
    10    9   11      ar
    11    9   12       1
    12    9   13       1
    13   13   14       1
    14   14   15       1
    15   15   16       1
    16   15   17       1
    17   16   21       1
    18   17   18       1
    19   17   19       1
    20   19   20       1
    21   19   21       1
    22   21   22       1
    23   22   23       1
    24   22   31       1
    25   23   24       2
    26   24   25       1
    27   25   26      ar
    28   25   31      ar
    29   26   27       1
    30   26   28      ar
    31   28   29      ar
    32   29   30      ar
    33   30   31      ar
    34   29   45       1
    35   27   44       1
    36   27   43       1
    37    8   32       1
    38    8   33       1
    39   23   42       1
    40   14   34       1
    41   14   35       1
    42   15   36       1
    43   17   37       1
    44   18   38       1
    45   19   39       1
    46   20   40       1
    47   21   41       1
@<TRIPOS>SUBSTRUCTURE
     1 ACP325      1 GROUP             4 A     ACP     0 **** ACP A 325
