@<TRIPOS>MOLECULE
4z0u_ASP_ILE_PRO_PHE_1_ligand
   68    69     4     0     0
SMALL
NO_CHARGES


@<TRIPOS>ATOM
     1 N           89.2080    47.6330    33.3080 N.4          1 ASP174   1.0000
     2 CA          88.0420    47.1540    34.1190 C.3          1 ASP174   0.0000
     3 C           86.9960    46.3680    33.3240 C.2          1 ASP174   0.0000
     4 O           86.3680    45.4620    33.8700 O.2          1 ASP174   0.0000
     5 CB          87.3410    48.3140    34.8180 C.3          1 ASP174   0.0000
     6 CG          86.3330    47.8360    35.8490 C.2          1 ASP174   0.0000
     7 OD1         86.7540    47.1300    36.7940 O.co2        1 ASP174   0.0000
     8 OD2         85.1280    48.1460    35.7070 O.co2        1 ASP174  -1.0000
     9 H1          89.6470    46.8528    32.8624 H            1 ASP174   0.0000
    10 H2          88.8885    48.2773    32.6132 H            1 ASP174   0.0000
    11 HA          88.3988    46.5467    34.8288 H            1 ASP174   0.0000
    12 HB1         86.8642    48.8632    34.1316 H            1 ASP174   0.0000
    13 HB2         88.0286    48.8770    35.2765 H            1 ASP174   0.0000
    14 N           86.7710    46.7410    32.0650 N.am         2 ILE175   0.0000
    15 CA          85.9670    45.9140    31.1650 C.3          2 ILE175   0.0000
    16 C           86.7610    44.6210    30.8730 C.2          2 ILE175   0.0000
    17 O           87.9230    44.6830    30.4610 O.2          2 ILE175   0.0000
    18 CB          85.5700    46.6730    29.8720 C.3          2 ILE175   0.0000
    19 CG1         84.4630    45.9190    29.1190 C.3          2 ILE175   0.0000
    20 CG2         86.7730    46.9230    28.9630 C.3          2 ILE175   0.0000
    21 CD1         83.6400    46.7970    28.1980 C.3          2 ILE175   0.0000
    22 H6          87.1579    47.6000    31.7298 H            2 ILE175   0.0000
    23 H7          85.1274    45.6600    31.6451 H            2 ILE175   0.0000
    24 HB          85.2025    47.5629    30.1422 H            2 ILE175   0.0000
    25 HG11        83.8493    45.5061    29.7920 H            2 ILE175   0.0000
    26 HG12        84.8890    45.1994    28.5706 H            2 ILE175   0.0000
    27 HG21        86.4755    47.4128    28.1435 H            2 ILE175   0.0000
    28 HG22        87.4515    47.4717    29.4514 H            2 ILE175   0.0000
    29 HG23        87.1791    46.0480    28.6993 H            2 ILE175   0.0000
    30 HD11        82.9428    46.2424    27.7438 H            2 ILE175   0.0000
    31 HD12        83.1972    47.5173    28.7319 H            2 ILE175   0.0000
    32 HD13        84.2369    47.2107    27.5105 H            2 ILE175   0.0000
    33 N           86.1440    43.4460    31.1060 N.am         3 PRO176   0.0000
    34 CA          86.8850    42.1840    31.0460 C.3          3 PRO176   0.0000
    35 C           86.9950    41.5890    29.6290 C.2          3 PRO176   0.0000
    36 O           87.1560    40.3690    29.4660 O.2          3 PRO176   0.0000
    37 CB          86.0520    41.2850    31.9540 C.3          3 PRO176   0.0000
    38 CG          84.6520    41.7240    31.6710 C.3          3 PRO176   0.0000
    39 CD          84.7160    43.2080    31.3940 C.3          3 PRO176   0.0000
    40 H17         87.7981    42.3072    31.4347 H            3 PRO176   0.0000
    41 H18         86.1803    40.3211    31.7208 H            3 PRO176   0.0000
    42 H19         86.2863    41.4294    32.9154 H            3 PRO176   0.0000
    43 HG1         84.2922    41.2389    30.8740 H            3 PRO176   0.0000
    44 HG2         84.0672    41.5451    32.4622 H            3 PRO176   0.0000
    45 HD1         84.1480    43.4491    30.6071 H            3 PRO176   0.0000
    46 HD2         84.4203    43.7332    32.1919 H            3 PRO176   0.0000
    47 N           86.9050    42.4400    28.6120 N.am         4 PHE177   0.0000
    48 CA          87.1410    42.0230    27.2340 C.3          4 PHE177   0.0000
    49 C           87.5640    43.2220    26.4000 C.2          4 PHE177   0.0000
    50 O           87.4200    44.3690    26.8240 O.co2        4 PHE177   0.0000
    51 CB          85.8890    41.3650    26.6390 C.3          4 PHE177   0.0000
    52 CG          84.6270    42.1620    26.8300 C.ar         4 PHE177   0.0000
    53 CD1         84.3290    43.2350    25.9940 C.ar         4 PHE177   0.0000
    54 CD2         83.7220    41.8260    27.8280 C.ar         4 PHE177   0.0000
    55 CE1         83.1650    43.9660    26.1670 C.ar         4 PHE177   0.0000
    56 CE2         82.5530    42.5510    28.0000 C.ar         4 PHE177   0.0000
    57 CZ          82.2770    43.6230    27.1690 C.ar         4 PHE177   0.0000
    58 OXT         88.0520    43.0720    25.2860 O.co2        4 PHE177  -1.0000
    59 H24         86.6686    43.3939    28.7968 H            4 PHE177   0.0000
    60 H25         87.8843    41.3541    27.2278 H            4 PHE177   0.0000
    61 H26         85.7661    40.4730    27.0740 H            4 PHE177   0.0000
    62 H27         86.0361    41.2399    25.6578 H            4 PHE177   0.0000
    63 H28         84.9625    43.4807    25.2603 H            4 PHE177   0.0000
    64 H29         83.9159    41.0515    28.4301 H            4 PHE177   0.0000
    65 HE1         82.9674    44.7414    25.5672 H            4 PHE177   0.0000
    66 HE2         81.9100    42.2998    28.7235 H            4 PHE177   0.0000
    67 HZ          81.4357    44.1490    27.2935 H            4 PHE177   0.0000
    68 H33         89.8663    48.0884    33.9074 H            4 PHE177   0.0000
@<TRIPOS>BOND
     1    1    2       1
     2    2    5       1
     3    2    3       1
     4    5    6       1
     5    6    7      ar
     6    6    8      ar
     7    3    4       2
     8    1    9       1
     9    1   10       1
    10    2   11       1
    11    3   14      am
    12    5   12       1
    13    5   13       1
    14   14   15       1
    15   15   18       1
    16   15   16       1
    17   18   20       1
    18   18   19       1
    19   19   21       1
    20   16   17       2
    21   21   32       1
    22   14   22       1
    23   15   23       1
    24   16   33      am
    25   18   24       1
    26   19   25       1
    27   19   26       1
    28   20   27       1
    29   20   28       1
    30   20   29       1
    31   21   30       1
    32   21   31       1
    33   33   39       1
    34   33   34       1
    35   39   38       1
    36   38   37       1
    37   37   34       1
    38   34   35       1
    39   35   36       2
    40   39   46       1
    41   34   40       1
    42   35   47      am
    43   37   41       1
    44   37   42       1
    45   38   43       1
    46   38   44       1
    47   39   45       1
    48   47   48       1
    49   48   51       1
    50   48   49       1
    51   51   52       1
    52   52   53      ar
    53   52   54      ar
    54   53   55      ar
    55   55   57      ar
    56   57   56      ar
    57   56   54      ar
    58   49   50      ar
    59   49   58      ar
    60   57   67       1
    61   47   59       1
    62   48   60       1
    63   51   61       1
    64   51   62       1
    65   53   63       1
    66   54   64       1
    67   55   65       1
    68   56   66       1
    69    1   68       1
@<TRIPOS>SUBSTRUCTURE
     1 ASP174      1 RESIDUE           4 D     ASP     0 **** ASP D 174
     2 ILE175     14 RESIDUE           4 D     ILE     0 **** ILE D 175
     3 PRO176     33 RESIDUE           4 D     PRO     0 **** PRO D 176
     4 PHE177     47 RESIDUE           4 D     PHE     0 **** PHE D 177
