@<TRIPOS>MOLECULE
3n39_FMN_1_ligand
   50    52     1     0     0
SMALL
NO_CHARGES


@<TRIPOS>ATOM
     1 N1         -16.6860   -19.2210    20.8700 N.2          1 FMN134   0.0000
     2 C2         -17.7110   -18.4480    20.3570 C.2          1 FMN134   0.0000
     3 O2         -17.4570   -17.4720    19.6530 O.2          1 FMN134   0.0000
     4 N3         -19.0270   -18.7690    20.6300 N.pl3        1 FMN134   0.0000
     5 C4         -19.3330   -19.8630    21.4180 C.2          1 FMN134   0.0000
     6 O4         -20.5120   -20.1370    21.6530 O.2          1 FMN134   0.0000
     7 C4A        -18.3030   -20.6440    21.9390 C.2          1 FMN134   0.0000
     8 N5         -18.5980   -21.7360    22.7280 N.2          1 FMN134   0.0000
     9 C5A        -17.5840   -22.5170    23.2470 C.ar         1 FMN134   0.0000
    10 C6         -17.9060   -23.6170    24.0430 C.ar         1 FMN134   0.0000
    11 C7         -16.8980   -24.4170    24.5770 C.ar         1 FMN134   0.0000
    12 C7M        -17.2720   -25.5970    25.4290 C.3          1 FMN134   0.0000
    13 C8         -15.5600   -24.1070    24.3110 C.ar         1 FMN134   0.0000
    14 C8M        -14.4410   -24.9380    24.8650 C.3          1 FMN134   0.0000
    15 C9         -15.2430   -23.0060    23.5170 C.ar         1 FMN134   0.0000
    16 C9A        -16.2480   -22.1990    22.9780 C.ar         1 FMN134   0.0000
    17 N10        -15.9430   -21.0930    22.1830 N.pl3        1 FMN134   0.0000
    18 C10        -16.9710   -20.3190    21.6630 C.2          1 FMN134   0.0000
    19 C1'        -14.5170   -20.7200    21.8690 C.3          1 FMN134   0.0000
    20 C2'        -13.8950   -19.9140    23.0140 C.3          1 FMN134   0.0000
    21 O2'        -14.6380   -18.7340    23.2570 O.3          1 FMN134   0.0000
    22 C3'        -12.4290   -19.5860    22.7160 C.3          1 FMN134   0.0000
    23 O3'        -11.6530   -20.7700    22.7310 O.3          1 FMN134   0.0000
    24 C4'        -11.8330   -18.5480    23.6740 C.3          1 FMN134   0.0000
    25 O4'        -10.6920   -17.9920    23.0600 O.3          1 FMN134   0.0000
    26 C5'        -11.4570   -19.1180    25.0420 C.3          1 FMN134   0.0000
    27 O5'        -10.8100   -18.1320    25.8160 O.3          1 FMN134   0.0000
    28 P          -10.1730   -18.4750    27.2610 P.3          1 FMN134   0.0000
    29 O1P         -9.0330   -19.4490    27.0910 O.co2        1 FMN134   0.0000
    30 O2P        -11.2210   -19.0770    28.1640 O.co2        1 FMN134  -1.0000
    31 O3P         -9.6620   -17.2010    27.8860 O.co2        1 FMN134  -1.0000
    32 H1         -19.7634   -18.2059    20.2549 H            1 FMN134   0.0000
    33 H2         -18.8644   -23.8320    24.2310 H            1 FMN134   0.0000
    34 H7M1       -16.4422   -26.0650    25.7331 H            1 FMN134   0.0000
    35 H7M2       -17.7883   -25.2827    26.2256 H            1 FMN134   0.0000
    36 H7M3       -17.8343   -26.2286    24.8953 H            1 FMN134   0.0000
    37 H8M1       -13.5651   -24.5595    24.5659 H            1 FMN134   0.0000
    38 H8M2       -14.4835   -24.9308    25.8641 H            1 FMN134   0.0000
    39 H8M3       -14.5284   -25.8777    24.5344 H            1 FMN134   0.0000
    40 H9         -14.2843   -22.7911    23.3309 H            1 FMN134   0.0000
    41 H1'1       -14.4992   -20.1695    21.0343 H            1 FMN134   0.0000
    42 H1'2       -13.9839   -21.5545    21.7293 H            1 FMN134   0.0000
    43 H2'        -13.9254   -20.4755    23.8409 H            1 FMN134   0.0000
    44 H13        -15.3499   -18.9218    23.9337 H            1 FMN134   0.0000
    45 H3'        -12.3850   -19.2063    21.7919 H            1 FMN134   0.0000
    46 H15        -12.0583   -21.4261    23.3676 H            1 FMN134   0.0000
    47 H4'        -12.5053   -17.8201    23.8091 H            1 FMN134   0.0000
    48 H17        -10.2851   -17.3103    23.6680 H            1 FMN134   0.0000
    49 H5'1       -10.8427   -19.8973    24.9182 H            1 FMN134   0.0000
    50 H5'2       -12.2856   -19.4184    25.5144 H            1 FMN134   0.0000
@<TRIPOS>BOND
     1    1    2       1
     2    1   18       2
     3    2    3       2
     4    2    4       1
     5    4    5       1
     6    5    6       2
     7    5    7       1
     8    7    8       2
     9    7   18       1
    10    8    9       1
    11    9   10      ar
    12    9   16      ar
    13   10   11      ar
    14   11   12       1
    15   11   13      ar
    16   13   14       1
    17   13   15      ar
    18   15   16      ar
    19   16   17       1
    20   17   18       1
    21   17   19       1
    22   19   20       1
    23   20   21       1
    24   20   22       1
    25   22   23       1
    26   22   24       1
    27   24   25       1
    28   24   26       1
    29   26   27       1
    30   27   28       1
    31   28   29      ar
    32   28   30      ar
    33   28   31      ar
    34    4   32       1
    35   10   33       1
    36   12   34       1
    37   12   35       1
    38   12   36       1
    39   14   37       1
    40   14   38       1
    41   14   39       1
    42   15   40       1
    43   19   41       1
    44   19   42       1
    45   20   43       1
    46   21   44       1
    47   22   45       1
    48   23   46       1
    49   24   47       1
    50   25   48       1
    51   26   49       1
    52   26   50       1
@<TRIPOS>SUBSTRUCTURE
     1 FMN134      1 GROUP             4 C     FMN     0 **** FMN C 134
