@<TRIPOS>MOLECULE
3pfi_ADP_2_ligand
   39    41     1     0     0
SMALL
NO_CHARGES


@<TRIPOS>ATOM
     1 PB           9.7870    30.7790   152.0290 P.3          1 ADP336   0.0000
     2 O1B          8.8870    31.1360   150.8690 O.co2        1 ADP336   0.0000
     3 O2B          9.1220    30.8550   153.3840 O.co2        1 ADP336  -1.0000
     4 O3B         10.6160    29.5420   151.7850 O.co2        1 ADP336  -1.0000
     5 PA          11.1830    32.7030   153.4840 P.3          1 ADP336   0.0000
     6 O1A         10.0830    33.7040   153.7480 O.co2        1 ADP336   0.0000
     7 O2A         11.5040    31.6280   154.4890 O.co2        1 ADP336  -1.0000
     8 O3A         10.8680    31.9650   152.0870 O.3          1 ADP336   0.0000
     9 O5'         12.5310    33.5280   153.1910 O.3          1 ADP336   0.0000
    10 C5'         13.4080    33.0590   152.1680 C.3          1 ADP336   0.0000
    11 C4'         14.7330    33.7990   152.1980 C.3          1 ADP336   0.0000
    12 O4'         14.7570    34.7160   151.1050 O.3          1 ADP336   0.0000
    13 C3'         14.9260    34.6080   153.4710 C.3          1 ADP336   0.0000
    14 O3'         16.2790    34.5360   153.9180 O.3          1 ADP336   0.0000
    15 C2'         14.6260    36.0370   153.0890 C.3          1 ADP336   0.0000
    16 O2'         15.5630    36.9280   153.6930 O.3          1 ADP336   0.0000
    17 C1'         14.7690    36.0690   151.5800 C.3          1 ADP336   0.0000
    18 N9          13.6710    36.8570   150.9800 N.pl3        1 ADP336   0.0000
    19 C8          12.4670    36.3940   150.6180 C.2          1 ADP336   0.0000
    20 N7          11.7510    37.4200   150.1080 N.2          1 ADP336   0.0000
    21 C5          12.5210    38.5230   150.1580 C.ar         1 ADP336   0.0000
    22 C6          12.3250    39.8360   149.7810 C.ar         1 ADP336   0.0000
    23 N6          11.1510    40.2160   149.2370 N.pl3        1 ADP336   0.0000
    24 N1          13.3150    40.7310   149.9610 N.ar         1 ADP336   0.0000
    25 C2          14.4840    40.3550   150.4990 C.ar         1 ADP336   0.0000
    26 N3          14.6970    39.0880   150.8730 N.ar         1 ADP336   0.0000
    27 C4          13.7310    38.1590   150.7090 C.ar         1 ADP336   0.0000
    28 H5'1        12.9755    33.2007   151.2776 H            1 ADP336   0.0000
    29 H5'2        13.5765    32.0829   152.3052 H            1 ADP336   0.0000
    30 H4'         15.4830    33.1447   152.1013 H            1 ADP336   0.0000
    31 H3'         14.3009    34.2952   154.1861 H            1 ADP336   0.0000
    32 H5          16.6715    35.4554   153.9421 H            1 ADP336   0.0000
    33 H2'         13.6933    36.2799   153.3554 H            1 ADP336   0.0000
    34 H7          15.0770    37.5736   154.2821 H            1 ADP336   0.0000
    35 H1'         15.6435    36.4919   151.3426 H            1 ADP336   0.0000
    36 H9          12.1518    35.4494   150.7097 H            1 ADP336   0.0000
    37 H10         11.0110    41.1679   148.9645 H            1 ADP336   0.0000
    38 H11         10.4204    39.5459   149.1061 H            1 ADP336   0.0000
    39 H12         15.2088    41.0327   150.6229 H            1 ADP336   0.0000
@<TRIPOS>BOND
     1    1    2      ar
     2    1    3      ar
     3    1    4      ar
     4    1    8       1
     5    5    6      ar
     6    5    7      ar
     7    5    8       1
     8    5    9       1
     9    9   10       1
    10   10   11       1
    11   11   12       1
    12   11   13       1
    13   12   17       1
    14   13   14       1
    15   13   15       1
    16   15   16       1
    17   15   17       1
    18   17   18       1
    19   18   19       1
    20   18   27       1
    21   19   20       2
    22   20   21       1
    23   21   22      ar
    24   21   27      ar
    25   22   23       1
    26   22   24      ar
    27   24   25      ar
    28   25   26      ar
    29   26   27      ar
    30   25   39       1
    31   23   38       1
    32   23   37       1
    33   10   28       1
    34   10   29       1
    35   11   30       1
    36   13   31       1
    37   14   32       1
    38   15   33       1
    39   16   34       1
    40   17   35       1
    41   19   36       1
@<TRIPOS>SUBSTRUCTURE
     1 ADP336      1 GROUP             4 B     ADP     0 **** ADP B 336
