@<TRIPOS>MOLECULE
4b0i_KBP_1_ligand
   46    45     1     0     0
SMALL
NO_CHARGES


@<TRIPOS>ATOM
     1 CAA        -23.0280    20.9270   -19.9600 C.2          1 KBP1170   0.0000
     2 CAB        -22.1920    21.9600   -20.6750 C.3          1 KBP1170   0.0000
     3 CAC        -23.0390    23.2330   -20.7450 C.3          1 KBP1170   0.0000
     4 CAD        -22.1580    24.4210   -20.3850 C.3          1 KBP1170   0.0000
     5 CAE        -21.9420    24.4210   -18.8730 C.3          1 KBP1170   0.0000
     6 CAF        -23.2500    24.7320   -18.1400 C.3          1 KBP1170   0.0000
     7 CAG        -22.9440    25.5640   -16.8950 C.3          1 KBP1170   0.0000
     8 CAH        -21.6240    25.1280   -16.2240 C.3          1 KBP1170   0.0000
     9 CAI        -20.4800    26.1320   -16.4430 C.3          1 KBP1170   0.0000
    10 CAJ        -19.9750    26.6930   -15.1010 C.3          1 KBP1170   0.0000
    11 OAM        -23.7460    21.2720   -19.0210 O.2          1 KBP1170   0.0000
    12 OAN        -23.6110    23.3740   -22.0480 O.3          1 KBP1170   0.0000
    13 SAO        -23.2460    19.4010   -20.7490 S.3          1 KBP1170   0.0000
    14 CAP        -24.7070    18.7370   -19.8720 C.3          1 KBP1170   0.0000
    15 CAQ        -26.0290    19.0010   -20.5860 C.3          1 KBP1170   0.0000
    16 NAR        -27.1090    18.5960   -19.6860 N.am         1 KBP1170   0.0000
    17 CAS        -27.3670    17.3090   -19.4200 C.2          1 KBP1170   0.0000
    18 CAT        -28.4860    17.0590   -18.3480 C.3          1 KBP1170   0.0000
    19 OAY        -26.7060    16.3860   -19.9180 O.2          1 KBP1170   0.0000
    20 HAB1       -21.9665    21.6441   -21.5966 H            1 KBP1170   0.0000
    21 HAB2       -21.3486    22.1339   -20.1666 H            1 KBP1170   0.0000
    22 HAC        -23.7779    23.1653   -20.0746 H            1 KBP1170   0.0000
    23 HAD1       -22.6070    25.2705   -20.6619 H            1 KBP1170   0.0000
    24 HAD2       -21.2772    24.3420   -20.8519 H            1 KBP1170   0.0000
    25 HAE1       -21.2612    25.1149   -18.6386 H            1 KBP1170   0.0000
    26 HAE2       -21.6121    23.5209   -18.5884 H            1 KBP1170   0.0000
    27 HAF1       -23.6934    23.8772   -17.8702 H            1 KBP1170   0.0000
    28 HAF2       -23.8580    25.2465   -18.7448 H            1 KBP1170   0.0000
    29 HAG1       -23.6917    25.4537   -16.2402 H            1 KBP1170   0.0000
    30 HAG2       -22.8708    26.5259   -17.1585 H            1 KBP1170   0.0000
    31 HAH1       -21.3499    24.2444   -16.6037 H            1 KBP1170   0.0000
    32 HAH2       -21.7819    25.0339   -15.2410 H            1 KBP1170   0.0000
    33 HAI1       -20.8110    26.8868   -17.0093 H            1 KBP1170   0.0000
    34 HAI2       -19.7252    25.6712   -16.9098 H            1 KBP1170   0.0000
    35 HAJ1       -19.2330    27.3420   -15.2691 H            1 KBP1170   0.0000
    36 HAJ2       -20.7249    27.1585   -14.6309 H            1 KBP1170   0.0000
    37 HAJ3       -19.6391    25.9429   -14.5314 H            1 KBP1170   0.0000
    38 HAN        -22.9876    23.8950   -22.6311 H            1 KBP1170   0.0000
    39 HAP1       -24.7488    19.1583   -18.9660 H            1 KBP1170   0.0000
    40 HAP2       -24.5935    17.7482   -19.7749 H            1 KBP1170   0.0000
    41 HAQ1       -26.0720    18.4681   -21.4311 H            1 KBP1170   0.0000
    42 HAQ2       -26.1116    19.9741   -20.8009 H            1 KBP1170   0.0000
    43 HAR        -27.6719    19.3019   -19.2562 H            1 KBP1170   0.0000
    44 HAT1       -28.6079    16.0752   -18.2166 H            1 KBP1170   0.0000
    45 HAT2       -28.2178    17.4803   -17.4817 H            1 KBP1170   0.0000
    46 HAT3       -29.3452    17.4622   -18.6628 H            1 KBP1170   0.0000
@<TRIPOS>BOND
     1    1    2       1
     2    1   11       2
     3    1   13       1
     4    2    3       1
     5    3    4       1
     6    3   12       1
     7    4    5       1
     8    5    6       1
     9    6    7       1
    10    7    8       1
    11    8    9       1
    12    9   10       1
    13   13   14       1
    14   14   15       1
    15   15   16       1
    16   16   17      am
    17   17   18       1
    18   17   19       2
    19    2   20       1
    20    2   21       1
    21    3   22       1
    22    4   23       1
    23    4   24       1
    24    5   25       1
    25    5   26       1
    26    6   27       1
    27    6   28       1
    28    7   29       1
    29    7   30       1
    30    8   31       1
    31    8   32       1
    32    9   33       1
    33    9   34       1
    34   10   35       1
    35   10   36       1
    36   10   37       1
    37   12   38       1
    38   14   39       1
    39   14   40       1
    40   15   41       1
    41   15   42       1
    42   16   43       1
    43   18   44       1
    44   18   45       1
    45   18   46       1
@<TRIPOS>SUBSTRUCTURE
     1 KBP1170     1 GROUP             4 A     KBP     0 **** KBP A1170
