@<TRIPOS>MOLECULE
4a7a_RGZ_1_ligand
   36    37     1     0     0
SMALL
NO_CHARGES


@<TRIPOS>ATOM
     1 N16         48.1640   160.4240    32.2530 N.4          1 RGZ601   1.0000
     2 C16         47.0810   159.9120    31.3970 C.3          1 RGZ601   0.0000
     3 C15         49.4420   160.9950    31.7900 C.3          1 RGZ601   0.0000
     4 C14         50.3450   159.9280    31.1530 C.3          1 RGZ601   0.0000
     5 O13         49.5820   158.9230    30.4240 O.3          1 RGZ601   0.0000
     6 C10         50.3000   157.9170    29.8420 C.ar         1 RGZ601   0.0000
     7 C9          49.7360   156.6450    29.7910 C.ar         1 RGZ601   0.0000
     8 C8          50.4240   155.5950    29.1930 C.ar         1 RGZ601   0.0000
     9 C11         51.5610   158.1410    29.2820 C.ar         1 RGZ601   0.0000
    10 C12         52.2560   157.0880    28.6850 C.ar         1 RGZ601   0.0000
    11 C7          51.6810   155.8130    28.6360 C.ar         1 RGZ601   0.0000
    12 C6          52.4350   154.6380    28.0010 C.3          1 RGZ601   0.0000
    13 C5          52.0160   154.4360    26.5560 C.3          1 RGZ601   0.0000
    14 S1          52.9250   155.6590    25.5600 S.3          1 RGZ601   0.0000
    15 C2          53.5800   154.3350    24.6570 C.2          1 RGZ601   0.0000
    16 O2          54.4750   154.5180    23.8320 O.2          1 RGZ601   0.0000
    17 N3          53.0880   153.1170    24.8850 N.am         1 RGZ601   0.0000
    18 C4          52.4630   153.0610    26.0630 C.2          1 RGZ601   0.0000
    19 O4          52.2710   152.0180    26.6830 O.2          1 RGZ601   0.0000
    20 H1          48.4184   159.6558    32.8404 H            1 RGZ601   0.0000
    21 H2          46.3303   159.5834    31.9701 H            1 RGZ601   0.0000
    22 H3          46.7505   160.6455    30.8030 H            1 RGZ601   0.0000
    23 H4          47.4266   159.1594    30.8365 H            1 RGZ601   0.0000
    24 H5          49.9185   161.3981    32.5713 H            1 RGZ601   0.0000
    25 H6          49.2526   161.7055    31.1123 H            1 RGZ601   0.0000
    26 H7          50.8664   159.4745    31.8758 H            1 RGZ601   0.0000
    27 H8          50.9749   160.3764    30.5188 H            1 RGZ601   0.0000
    28 H9          48.8314   156.4858    30.1865 H            1 RGZ601   0.0000
    29 H10         50.0156   154.6827    29.1630 H            1 RGZ601   0.0000
    30 H11         51.9651   159.0553    29.3091 H            1 RGZ601   0.0000
    31 H12         53.1627   157.2443    28.2932 H            1 RGZ601   0.0000
    32 H13         52.2367   153.8052    28.5179 H            1 RGZ601   0.0000
    33 H14         53.4169   154.8245    28.0332 H            1 RGZ601   0.0000
    34 H15         51.0283   154.5508    26.4501 H            1 RGZ601   0.0000
    35 H16         53.1759   152.3454    24.2550 H            1 RGZ601   0.0000
    36 H17         47.7423   161.1418    32.8070 H            1 RGZ601   0.0000
@<TRIPOS>BOND
     1    1    2       1
     2    1    3       1
     3    3    4       1
     4    4    5       1
     5    5    6       1
     6    6    7      ar
     7    6    9      ar
     8    7    8      ar
     9    8   11      ar
    10    9   10      ar
    11   10   11      ar
    12   11   12       1
    13   12   13       1
    14   13   14       1
    15   13   18       1
    16   14   15       1
    17   15   16       2
    18   15   17      am
    19   17   18      am
    20   18   19       2
    21    1   20       1
    22    2   21       1
    23    2   22       1
    24    2   23       1
    25    3   24       1
    26    3   25       1
    27    4   26       1
    28    4   27       1
    29    7   28       1
    30    8   29       1
    31    9   30       1
    32   10   31       1
    33   12   32       1
    34   12   33       1
    35   13   34       1
    36   17   35       1
    37    1   36       1
@<TRIPOS>SUBSTRUCTURE
     1 RGZ601      1 GROUP             4 A     RGZ     0 **** RGZ A 601
