@<TRIPOS>MOLECULE
1tco_FK5_1_ligand
  126   129     1     0     0
SMALL
NO_CHARGES


@<TRIPOS>ATOM
     1 C1          55.6910    42.8170    53.5550 C.2          1 FK5509   0.0000
     2 C2          55.4390    44.0610    52.6960 C.3          1 FK5509   0.0000
     3 C3          54.8500    43.6270    51.3530 C.3          1 FK5509   0.0000
     4 C4          55.8590    42.9500    50.4540 C.3          1 FK5509   0.0000
     5 C5          56.9510    43.9510    50.1620 C.3          1 FK5509   0.0000
     6 C6          57.5790    44.5350    51.4500 C.3          1 FK5509   0.0000
     7 C8          56.5360    46.1350    53.0370 C.2          1 FK5509   0.0000
     8 C9          57.6860    47.1050    52.7800 C.2          1 FK5509   0.0000
     9 C10         58.9250    47.1330    53.7560 C.3          1 FK5509   0.0000
    10 C11         58.6760    46.7620    55.2820 C.3          1 FK5509   0.0000
    11 C12         59.9120    46.2350    56.0430 C.3          1 FK5509   0.0000
    12 C13         60.8090    45.3210    55.2370 C.3          1 FK5509   0.0000
    13 C14         61.0700    45.9610    53.8180 C.3          1 FK5509   0.0000
    14 C15         61.9140    45.2000    52.7540 C.3          1 FK5509   0.0000
    15 C16         61.4840    43.6960    52.6860 C.3          1 FK5509   0.0000
    16 C17         62.1490    42.7870    51.6070 C.3          1 FK5509   0.0000
    17 C18         63.4790    42.1220    52.0800 C.3          1 FK5509   0.0000
    18 C19         63.2920    40.9240    53.0290 C.2          1 FK5509   0.0000
    19 C20         63.3370    41.1340    54.3780 C.2          1 FK5509   0.0000
    20 C21         63.0720    40.2370    55.5620 C.3          1 FK5509   0.0000
    21 C22         61.6350    40.4210    55.9020 C.2          1 FK5509   0.0000
    22 C23         60.7250    39.5650    55.0480 C.3          1 FK5509   0.0000
    23 C24         59.2040    39.8000    55.2270 C.3          1 FK5509   0.0000
    24 C25         58.6820    40.9630    54.3530 C.3          1 FK5509   0.0000
    25 C26         57.3100    41.4720    54.7660 C.3          1 FK5509   0.0000
    26 C27         57.1560    41.8060    56.2380 C.2          1 FK5509   0.0000
    27 C28         56.2790    41.1920    57.0560 C.2          1 FK5509   0.0000
    28 C29         56.1910    41.4280    58.5570 C.3          1 FK5509   0.0000
    29 C30         54.7080    41.2840    58.9690 C.3          1 FK5509   0.0000
    30 C31         54.4610    41.2790    60.4760 C.3          1 FK5509   0.0000
    31 C32         55.3410    40.2350    61.1720 C.3          1 FK5509   0.0000
    32 C33         56.8290    40.4590    60.8540 C.3          1 FK5509   0.0000
    33 C34         57.0850    40.4470    59.3420 C.3          1 FK5509   0.0000
    34 C35         58.0200    47.8980    56.1140 C.3          1 FK5509   0.0000
    35 C36         62.2720    43.4460    50.2080 C.3          1 FK5509   0.0000
    36 C37         63.0140    39.5700    52.3680 C.3          1 FK5509   0.0000
    37 C38         63.9130    40.6410    56.7710 C.3          1 FK5509   0.0000
    38 C39         65.3780    40.5440    56.4920 C.2          1 FK5509   0.0000
    39 C40         66.0830    39.4820    56.8910 C.2          1 FK5509   0.0000
    40 C41         58.6570    40.5960    52.8680 C.3          1 FK5509   0.0000
    41 C42         57.9900    42.9640    56.7030 C.3          1 FK5509   0.0000
    42 C43         61.9020    44.3310    57.1530 C.3          1 FK5509   0.0000
    43 C44         64.0190    46.4060    52.4510 C.3          1 FK5509   0.0000
    44 C45         52.2620    42.1430    60.8690 C.3          1 FK5509   0.0000
    45 N7          56.5430    44.9450    52.4030 N.am         1 FK5509   0.0000
    46 O1          56.9590    42.6730    54.0190 O.3          1 FK5509   0.0000
    47 O2          54.8360    41.9800    53.7340 O.2          1 FK5509   0.0000
    48 O3          55.6410    46.4860    53.8070 O.2          1 FK5509   0.0000
    49 O4          57.6620    47.8340    51.7780 O.2          1 FK5509   0.0000
    50 O5          59.8070    46.1530    53.2150 O.3          1 FK5509   0.0000
    51 O6          59.4630    48.4770    53.6730 O.3          1 FK5509   0.0000
    52 O7          61.9870    45.1670    56.0470 O.3          1 FK5509   0.0000
    53 O8          63.3190    45.3430    53.0540 O.3          1 FK5509   0.0000
    54 O9          61.2270    41.1890    56.7770 O.2          1 FK5509   0.0000
    55 O10         58.6420    38.5570    54.7650 O.3          1 FK5509   0.0000
    56 O11         53.0860    40.9980    60.7120 O.3          1 FK5509   0.0000
    57 O12         55.1390    40.4070    62.5470 O.3          1 FK5509   0.0000
    58 H1          54.7413    44.6049    53.1621 H            1 FK5509   0.0000
    59 H2          54.4980    44.4366    50.8833 H            1 FK5509   0.0000
    60 H3          54.0994    42.9893    51.5259 H            1 FK5509   0.0000
    61 H4          55.4200    42.6654    49.6018 H            1 FK5509   0.0000
    62 H5          56.2436    42.1498    50.9143 H            1 FK5509   0.0000
    63 H6          56.5637    44.7008    49.6255 H            1 FK5509   0.0000
    64 H7          57.6681    43.4980    49.6324 H            1 FK5509   0.0000
    65 H8          58.1356    45.3304    51.2104 H            1 FK5509   0.0000
    66 H9          58.1576    43.8393    51.8757 H            1 FK5509   0.0000
    67 H10         58.0165    46.0103    55.2770 H            1 FK5509   0.0000
    68 H11         59.5922    45.7298    56.8446 H            1 FK5509   0.0000
    69 H12         60.4541    47.0214    56.3391 H            1 FK5509   0.0000
    70 H13         60.3640    44.4326    55.1246 H            1 FK5509   0.0000
    71 H14         61.4858    46.8599    53.9565 H            1 FK5509   0.0000
    72 H15         61.7407    45.6158    51.8612 H            1 FK5509   0.0000
    73 H16         60.4976    43.6768    52.5228 H            1 FK5509   0.0000
    74 H17         61.6821    43.2904    53.5783 H            1 FK5509   0.0000
    75 H18         61.5111    42.0275    51.4799 H            1 FK5509   0.0000
    76 H19         64.0228    42.8143    52.5544 H            1 FK5509   0.0000
    77 H20         63.9747    41.8053    51.2713 H            1 FK5509   0.0000
    78 H21         63.5968    42.0660    54.6307 H            1 FK5509   0.0000
    79 H22         63.2505    39.2833    55.3199 H            1 FK5509   0.0000
    80 H23         60.9140    38.6073    55.2649 H            1 FK5509   0.0000
    81 H24         60.9508    39.7406    54.0898 H            1 FK5509   0.0000
    82 H25         58.9806    39.9531    56.1896 H            1 FK5509   0.0000
    83 H26         59.3233    41.7230    54.4588 H            1 FK5509   0.0000
    84 H27         56.6402    40.7644    54.5407 H            1 FK5509   0.0000
    85 H28         55.6426    40.5366    56.6492 H            1 FK5509   0.0000
    86 H29         56.4896    42.3620    58.7533 H            1 FK5509   0.0000
    87 H30         54.3629    40.4236    58.5941 H            1 FK5509   0.0000
    88 H31         54.1992    42.0482    58.5727 H            1 FK5509   0.0000
    89 H32         54.6762    42.1836    60.8441 H            1 FK5509   0.0000
    90 H33         55.0653    39.3141    60.8965 H            1 FK5509   0.0000
    91 H34         57.3662    39.7316    61.2809 H            1 FK5509   0.0000
    92 H35         57.1116    41.3436    61.2250 H            1 FK5509   0.0000
    93 H36         58.0410    40.6925    59.1812 H            1 FK5509   0.0000
    94 H37         56.9162    39.5226    59.0001 H            1 FK5509   0.0000
    95 H38         57.8961    47.5911    57.0577 H            1 FK5509   0.0000
    96 H39         58.6108    48.7047    56.1006 H            1 FK5509   0.0000
    97 H40         57.1308    48.1294    55.7193 H            1 FK5509   0.0000
    98 H41         62.7056    42.8051    49.5746 H            1 FK5509   0.0000
    99 H42         61.3613    43.6838    49.8703 H            1 FK5509   0.0000
   100 H43         62.8285    44.2740    50.2773 H            1 FK5509   0.0000
   101 H44         62.9104    38.8694    53.0740 H            1 FK5509   0.0000
   102 H45         62.1730    39.6281    51.8301 H            1 FK5509   0.0000
   103 H46         63.7771    39.3288    51.7685 H            1 FK5509   0.0000
   104 H47         63.6894    40.0371    57.5360 H            1 FK5509   0.0000
   105 H48         63.6930    41.5851    57.0163 H            1 FK5509   0.0000
   106 H49         65.8366    41.2841    56.0000 H            1 FK5509   0.0000
   107 H50         67.0627    39.4307    56.6973 H            1 FK5509   0.0000
   108 H51         65.6311    38.7382    57.3834 H            1 FK5509   0.0000
   109 H52         58.3144    41.3721    52.3386 H            1 FK5509   0.0000
   110 H53         59.5825    40.3685    52.5652 H            1 FK5509   0.0000
   111 H54         58.0577    39.8075    52.7295 H            1 FK5509   0.0000
   112 H55         57.8318    43.1183    57.6783 H            1 FK5509   0.0000
   113 H56         58.9572    42.7608    56.5502 H            1 FK5509   0.0000
   114 H57         57.7367    43.7844    56.1903 H            1 FK5509   0.0000
   115 H58         62.7831    44.3128    57.6256 H            1 FK5509   0.0000
   116 H59         61.1971    44.6718    57.7751 H            1 FK5509   0.0000
   117 H60         61.6646    43.4066    56.8546 H            1 FK5509   0.0000
   118 H61         64.9746    46.3850    52.7448 H            1 FK5509   0.0000
   119 H62         63.9739    46.3131    51.4563 H            1 FK5509   0.0000
   120 H63         63.6054    47.2747    52.7237 H            1 FK5509   0.0000
   121 H64         51.3180    41.8548    61.0299 H            1 FK5509   0.0000
   122 H65         52.5837    42.6809    61.6482 H            1 FK5509   0.0000
   123 H66         52.3037    42.7000    60.0395 H            1 FK5509   0.0000
   124 H67         59.7389    48.6680    52.7310 H            1 FK5509   0.0000
   125 H68         58.9879    37.8055    55.3268 H            1 FK5509   0.0000
   126 H69         55.6943    39.7453    63.0508 H            1 FK5509   0.0000
@<TRIPOS>BOND
     1    1    2       1
     2    1   46       1
     3    1   47       2
     4    2    3       1
     5    2   45       1
     6    3    4       1
     7    4    5       1
     8    5    6       1
     9    6   45       1
    10    7    8       1
    11    7   45      am
    12    7   48       2
    13    8    9       1
    14    8   49       2
    15    9   10       1
    16    9   50       1
    17    9   51       1
    18   10   11       1
    19   10   34       1
    20   11   12       1
    21   12   13       1
    22   12   52       1
    23   13   14       1
    24   13   50       1
    25   14   15       1
    26   14   53       1
    27   15   16       1
    28   16   17       1
    29   16   35       1
    30   17   18       1
    31   18   19       2
    32   18   36       1
    33   19   20       1
    34   20   21       1
    35   20   37       1
    36   21   22       1
    37   21   54       2
    38   22   23       1
    39   23   24       1
    40   23   55       1
    41   24   25       1
    42   24   40       1
    43   25   26       1
    44   25   46       1
    45   26   27       2
    46   26   41       1
    47   27   28       1
    48   28   29       1
    49   28   33       1
    50   29   30       1
    51   30   31       1
    52   30   56       1
    53   31   32       1
    54   31   57       1
    55   32   33       1
    56   37   38       1
    57   38   39       2
    58   42   52       1
    59   43   53       1
    60   44   56       1
    61    2   58       1
    62    3   59       1
    63    3   60       1
    64    4   61       1
    65    4   62       1
    66    5   63       1
    67    5   64       1
    68    6   65       1
    69    6   66       1
    70   10   67       1
    71   11   68       1
    72   11   69       1
    73   12   70       1
    74   13   71       1
    75   14   72       1
    76   15   73       1
    77   15   74       1
    78   16   75       1
    79   17   76       1
    80   17   77       1
    81   19   78       1
    82   20   79       1
    83   22   80       1
    84   22   81       1
    85   23   82       1
    86   24   83       1
    87   25   84       1
    88   27   85       1
    89   28   86       1
    90   29   87       1
    91   29   88       1
    92   30   89       1
    93   31   90       1
    94   32   91       1
    95   32   92       1
    96   33   93       1
    97   33   94       1
    98   34   95       1
    99   34   96       1
   100   34   97       1
   101   35   98       1
   102   35   99       1
   103   35  100       1
   104   36  101       1
   105   36  102       1
   106   36  103       1
   107   37  104       1
   108   37  105       1
   109   38  106       1
   110   39  107       1
   111   39  108       1
   112   40  109       1
   113   40  110       1
   114   40  111       1
   115   41  112       1
   116   41  113       1
   117   41  114       1
   118   42  115       1
   119   42  116       1
   120   42  117       1
   121   43  118       1
   122   43  119       1
   123   43  120       1
   124   44  121       1
   125   44  122       1
   126   44  123       1
   127   51  124       1
   128   55  125       1
   129   57  126       1
@<TRIPOS>SUBSTRUCTURE
     1 FK5509      1 GROUP             4 C     FK5     0 **** FK5 C 509
