@<TRIPOS>MOLECULE
5eom_CTP_2_ligand
   41    42     1     0     0
SMALL
NO_CHARGES


@<TRIPOS>ATOM
     1 N1         161.1500     0.1100    53.7020 N.pl3        1 CTP402   0.0000
     2 C2         160.4320    -1.0500    53.8920 C.2          1 CTP402   0.0000
     3 N3         159.1910    -1.0060    54.4960 N.2          1 CTP402   0.0000
     4 C4         158.6670     0.1980    54.9180 C.2          1 CTP402   0.0000
     5 C5         159.3930     1.3690    54.7260 C.2          1 CTP402   0.0000
     6 C6         160.6510     1.3080    54.1370 C.2          1 CTP402   0.0000
     7 O2         160.8900    -2.1300    53.5200 O.2          1 CTP402   0.0000
     8 N4         157.4760     0.2340    55.5050 N.pl3        1 CTP402   0.0000
     9 C1'        162.4700     0.0590    53.0400 C.3          1 CTP402   0.0000
    10 C2'        162.2870     0.2710    51.5470 C.3          1 CTP402   0.0000
    11 O2'        162.7620    -0.8560    50.8510 O.3          1 CTP402   0.0000
    12 C3'        163.1290     1.4790    51.1910 C.3          1 CTP402   0.0000
    13 C4'        163.9750     1.7210    52.4290 C.3          1 CTP402   0.0000
    14 O4'        163.2960     1.1070    53.5110 O.3          1 CTP402   0.0000
    15 O3'        163.9330     1.2190    50.0660 O.3          1 CTP402   0.0000
    16 C5'        164.2160     3.2060    52.6760 C.3          1 CTP402   0.0000
    17 O5'        163.1550     3.7500    53.4210 O.3          1 CTP402   0.0000
    18 PA         162.8340     5.3220    53.3520 P.3          1 CTP402   0.0000
    19 O1A        161.3460     5.5690    53.3000 O.co2        1 CTP402   0.0000
    20 O2A        163.4360     5.9860    54.5630 O.co2        1 CTP402  -1.0000
    21 O3A        163.6170     5.8650    52.0500 O.3          1 CTP402   0.0000
    22 PB         162.8730     6.2020    50.6620 P.3          1 CTP402   0.0000
    23 O1B        163.8470     6.9110    49.7610 O.co2        1 CTP402   0.0000
    24 O2B        161.6350     7.0380    50.8830 O.co2        1 CTP402  -1.0000
    25 O3B        162.4900     4.7680    50.0370 O.3          1 CTP402   0.0000
    26 PG         161.2550     4.6170    49.0150 P.3          1 CTP402   0.0000
    27 O1G        161.3330     5.6590    47.9260 O.co2        1 CTP402   0.0000
    28 O2G        159.9630     4.7810    49.7770 O.co2        1 CTP402  -1.0000
    29 O3G        161.2860     3.2430    48.3950 O.co2        1 CTP402  -1.0000
    30 H1         159.0125     2.2491    55.0098 H            1 CTP402   0.0000
    31 H2         161.1928     2.1418    54.0309 H            1 CTP402   0.0000
    32 H3         157.0956     1.1067    55.8111 H            1 CTP402   0.0000
    33 H4         156.9597    -0.6116    55.6408 H            1 CTP402   0.0000
    34 H1'        162.9058    -0.8248    53.2105 H            1 CTP402   0.0000
    35 H2'        161.3249     0.4374    51.3311 H            1 CTP402   0.0000
    36 H7         163.4995    -0.5806    50.2344 H            1 CTP402   0.0000
    37 H3'        162.5405     2.2687    51.0174 H            1 CTP402   0.0000
    38 H4'        164.8585     1.2688    52.3069 H            1 CTP402   0.0000
    39 H10        163.7052     1.8646    49.3371 H            1 CTP402   0.0000
    40 H5'1       164.2816     3.6809    51.7984 H            1 CTP402   0.0000
    41 H5'2       165.0701     3.3227    53.1829 H            1 CTP402   0.0000
@<TRIPOS>BOND
     1    1    2       1
     2    1    6       1
     3    1    9       1
     4    2    3       1
     5    2    7       2
     6    3    4       2
     7    4    5       1
     8    4    8       1
     9    5    6       2
    10    9   10       1
    11    9   14       1
    12   10   11       1
    13   10   12       1
    14   12   13       1
    15   12   15       1
    16   13   14       1
    17   13   16       1
    18   16   17       1
    19   17   18       1
    20   18   19      ar
    21   18   20      ar
    22   18   21       1
    23   21   22       1
    24   22   23      ar
    25   22   24      ar
    26   22   25       1
    27   25   26       1
    28   26   27      ar
    29   26   28      ar
    30   26   29      ar
    31    5   30       1
    32    6   31       1
    33    8   32       1
    34    8   33       1
    35    9   34       1
    36   10   35       1
    37   11   36       1
    38   12   37       1
    39   13   38       1
    40   15   39       1
    41   16   40       1
    42   16   41       1
@<TRIPOS>SUBSTRUCTURE
     1 CTP402      1 GROUP             4 B     CTP     0 **** CTP B 402
