@<TRIPOS>MOLECULE
3a8t_ATP_1_ligand
   43    45     1     0     0
SMALL
NO_CHARGES


@<TRIPOS>ATOM
     1 PG          28.3140    30.4150    18.3450 P.3          1 ATP800   0.0000
     2 O1G         29.5650    30.6430    17.5550 O.co2        1 ATP800   0.0000
     3 O2G         28.2890    31.5140    19.5490 O.co2        1 ATP800  -1.0000
     4 O3G         27.0110    30.6420    17.4200 O.co2        1 ATP800  -1.0000
     5 PB          29.5050    27.9710    18.7890 P.3          1 ATP800   0.0000
     6 O1B         29.4490    27.1290    17.6330 O.co2        1 ATP800   0.0000
     7 O2B         30.7530    28.8870    18.6640 O.co2        1 ATP800  -1.0000
     8 O3B         28.1860    28.8600    18.9310 O.3          1 ATP800   0.0000
     9 PA          28.4490    26.6990    21.0740 P.3          1 ATP800   0.0000
    10 O1A         27.1980    26.4090    20.3900 O.co2        1 ATP800   0.0000
    11 O2A         28.8360    25.3650    21.9150 O.co2        1 ATP800  -1.0000
    12 O3A         29.7310    27.0160    20.0850 O.3          1 ATP800   0.0000
    13 O5'         28.2870    27.8450    22.2160 O.3          1 ATP800   0.0000
    14 C5'         27.4870    28.9250    21.8210 C.3          1 ATP800   0.0000
    15 C4'         26.9940    29.5870    23.0930 C.3          1 ATP800   0.0000
    16 O4'         26.2520    28.6260    23.8540 O.3          1 ATP800   0.0000
    17 C3'         28.1130    30.0600    24.0530 C.3          1 ATP800   0.0000
    18 O3'         28.5460    31.3760    23.7190 O.3          1 ATP800   0.0000
    19 C2'         27.4260    29.9680    25.4260 C.3          1 ATP800   0.0000
    20 O2'         26.7140    31.1280    25.6860 O.3          1 ATP800   0.0000
    21 C1'         26.4880    28.7890    25.3080 C.3          1 ATP800   0.0000
    22 N9          27.1100    27.5640    25.8820 N.pl3        1 ATP800   0.0000
    23 C8          27.7900    26.5690    25.1810 C.2          1 ATP800   0.0000
    24 N7          28.3010    25.6830    26.0110 N.2          1 ATP800   0.0000
    25 C5          27.9880    26.0350    27.2900 C.ar         1 ATP800   0.0000
    26 C6          28.2470    25.5070    28.6170 C.ar         1 ATP800   0.0000
    27 N6          28.9850    24.3690    28.8260 N.pl3        1 ATP800   0.0000
    28 N1          27.7400    26.1760    29.6740 N.ar         1 ATP800   0.0000
    29 C2          27.0230    27.2810    29.5190 C.ar         1 ATP800   0.0000
    30 N3          26.7600    27.8100    28.3220 N.ar         1 ATP800   0.0000
    31 C4          27.2040    27.2520    27.2070 C.ar         1 ATP800   0.0000
    32 H5'1        26.7123    28.6002    21.2784 H            1 ATP800   0.0000
    33 H5'2        28.0241    29.5728    21.2807 H            1 ATP800   0.0000
    34 H4'         26.4028    30.3595    22.8612 H            1 ATP800   0.0000
    35 H3'         28.8858    29.4265    24.0149 H            1 ATP800   0.0000
    36 H5          28.3944    31.9845    24.4979 H            1 ATP800   0.0000
    37 H2'         28.1023    29.8053    26.1444 H            1 ATP800   0.0000
    38 H7          26.2729    31.0550    26.5805 H            1 ATP800   0.0000
    39 H1'         25.6265    28.9877    25.7753 H            1 ATP800   0.0000
    40 H9          27.8777    26.5330    24.1855 H            1 ATP800   0.0000
    41 H10         29.1407    24.0379    29.7567 H            1 ATP800   0.0000
    42 H11         29.3670    23.8708    28.0476 H            1 ATP800   0.0000
    43 H12         26.6642    27.7372    30.3334 H            1 ATP800   0.0000
@<TRIPOS>BOND
     1    1    2      ar
     2    1    3      ar
     3    1    4      ar
     4    1    8       1
     5    5    6      ar
     6    5    7      ar
     7    5    8       1
     8    5   12       1
     9    9   10      ar
    10    9   11      ar
    11    9   12       1
    12    9   13       1
    13   13   14       1
    14   14   15       1
    15   15   16       1
    16   15   17       1
    17   16   21       1
    18   17   18       1
    19   17   19       1
    20   19   20       1
    21   19   21       1
    22   21   22       1
    23   22   23       1
    24   22   31       1
    25   23   24       2
    26   24   25       1
    27   25   26      ar
    28   25   31      ar
    29   26   27       1
    30   26   28      ar
    31   28   29      ar
    32   29   30      ar
    33   30   31      ar
    34   29   43       1
    35   27   42       1
    36   27   41       1
    37   23   40       1
    38   14   32       1
    39   14   33       1
    40   15   34       1
    41   17   35       1
    42   18   36       1
    43   19   37       1
    44   20   38       1
    45   21   39       1
@<TRIPOS>SUBSTRUCTURE
     1 ATP800      1 GROUP             4 A     ATP     0 **** ATP A 800
