@<TRIPOS>MOLECULE
1ivh_COS_2_ligand
   81    83     1     0     0
SMALL
NO_CHARGES


@<TRIPOS>ATOM
     1 N1A         17.2710    64.6700   -51.2460 N.ar         1 COS400   0.0000
     2 C2A         16.7240    65.6880   -51.9390 C.ar         1 COS400   0.0000
     3 N3A         15.8590    66.6340   -51.5480 N.ar         1 COS400   0.0000
     4 C4A         15.5470    66.4510   -50.2300 C.ar         1 COS400   0.0000
     5 C5A         16.0180    65.4610   -49.3950 C.ar         1 COS400   0.0000
     6 C6A         16.9350    64.5250   -49.9410 C.ar         1 COS400   0.0000
     7 N6A         17.5100    63.5690   -49.2160 N.pl3        1 COS400   0.0000
     8 N7A         15.4860    65.6110   -48.1150 N.2          1 COS400   0.0000
     9 C8A         14.7360    66.6670   -48.2130 C.2          1 COS400   0.0000
    10 N9A         14.7290    67.2360   -49.4650 N.pl3        1 COS400   0.0000
    11 C1B         14.0760    68.4830   -49.9170 C.3          1 COS400   0.0000
    12 C2B         12.5920    68.3710   -49.5310 C.3          1 COS400   0.0000
    13 O2B         11.9010    67.6370   -50.5470 O.3          1 COS400   0.0000
    14 C3B         12.1940    69.8530   -49.5550 C.3          1 COS400   0.0000
    15 O3B         12.2460    70.2790   -50.9370 O.3          1 COS400   0.0000
    16 P3B         10.8330    70.6470   -51.7240 P.3          1 COS400   0.0000
    17 O7A         10.1860    71.5360   -50.6850 O.co2        1 COS400   0.0000
    18 O8A         10.1990    69.2890   -51.9630 O.co2        1 COS400  -1.0000
    19 O9A         11.3130    71.3650   -52.9790 O.co2        1 COS400  -1.0000
    20 C4B         13.3770    70.4480   -48.7600 C.3          1 COS400   0.0000
    21 O4B         14.5210    69.6440   -49.1810 O.3          1 COS400   0.0000
    22 C5B         13.1340    70.3600   -47.2460 C.3          1 COS400   0.0000
    23 O5B         13.0900    69.0540   -46.6840 O.3          1 COS400   0.0000
    24 P1A         12.3730    68.6810   -45.2930 P.3          1 COS400   0.0000
    25 O1A         10.9270    68.5890   -45.6560 O.co2        1 COS400   0.0000
    26 O2A         12.9970    67.4380   -44.7590 O.co2        1 COS400  -1.0000
    27 O3A         12.6740    69.9950   -44.3880 O.3          1 COS400   0.0000
    28 P2A         12.9840    70.1340   -42.7790 P.3          1 COS400   0.0000
    29 O4A         13.3760    71.5570   -42.4760 O.co2        1 COS400   0.0000
    30 O5A         11.9830    69.4820   -41.8600 O.co2        1 COS400  -1.0000
    31 O6A         14.3550    69.2490   -42.7230 O.3          1 COS400   0.0000
    32 CBP         15.7760    67.8400   -41.3020 C.3          1 COS400   0.0000
    33 CCP         14.4820    67.9710   -42.0910 C.3          1 COS400   0.0000
    34 CDP         15.5160    68.3530   -39.9030 C.3          1 COS400   0.0000
    35 CEP         15.9810    66.3290   -41.2400 C.3          1 COS400   0.0000
    36 CAP         16.9420    68.6210   -42.0410 C.3          1 COS400   0.0000
    37 OAP         16.9060    70.0560   -41.8440 O.3          1 COS400   0.0000
    38 C9P         18.3450    68.1710   -41.6290 C.2          1 COS400   0.0000
    39 O9P         18.9160    67.2470   -42.2180 O.2          1 COS400   0.0000
    40 N8P         18.9350    68.8800   -40.5970 N.am         1 COS400   0.0000
    41 C7P         20.2790    68.5570   -40.1150 C.3          1 COS400   0.0000
    42 C6P         21.3580    69.4630   -40.7190 C.3          1 COS400   0.0000
    43 C5P         22.7360    68.8140   -40.7450 C.2          1 COS400   0.0000
    44 O5P         22.8660    67.5930   -40.8210 O.2          1 COS400   0.0000
    45 N4P         23.8320    69.6510   -40.7060 N.am         1 COS400   0.0000
    46 C3P         25.1800    69.1210   -40.7660 C.3          1 COS400   0.0000
    47 C2P         26.2080    70.1330   -41.2550 C.3          1 COS400   0.0000
    48 S1P         27.9010    69.4720   -41.1470 S.3          1 COS400   0.0000
    49 S'P         28.1110    69.0050   -39.1830 S.3          1 COS400   0.0000
    50 H2A         17.0083    65.7469   -52.8959 H            1 COS400   0.0000
    51 H6A1        17.2662    63.4571   -48.2527 H            1 COS400   0.0000
    52 H6A2        18.1860    62.9624   -49.6344 H            1 COS400   0.0000
    53 H8A         14.2100    67.0339   -47.4457 H            1 COS400   0.0000
    54 H1B         14.1859    68.6138   -50.9023 H            1 COS400   0.0000
    55 H2B         12.4696    67.9644   -48.6256 H            1 COS400   0.0000
    56 H7          11.1813    68.2091   -50.9404 H            1 COS400   0.0000
    57 H3B         11.3078    70.0267   -49.1256 H            1 COS400   0.0000
    58 H4B         13.5176    71.4018   -49.0254 H            1 COS400   0.0000
    59 H5B1        12.2587    70.8033   -47.0527 H            1 COS400   0.0000
    60 H5B2        13.8695    70.8618   -46.7908 H            1 COS400   0.0000
    61 HCP1        14.4620    67.2612   -42.7951 H            1 COS400   0.0000
    62 HCP2        13.7111    67.8434   -41.4670 H            1 COS400   0.0000
    63 HDP1        16.3524    68.2787   -39.3599 H            1 COS400   0.0000
    64 HDP2        15.2309    69.3105   -39.9467 H            1 COS400   0.0000
    65 HDP3        14.7928    67.8090   -39.4775 H            1 COS400   0.0000
    66 HEP1        16.8194    66.1269   -40.7338 H            1 COS400   0.0000
    67 HEP2        15.2020    65.9056   -40.7775 H            1 COS400   0.0000
    68 HEP3        16.0559    65.9644   -42.1682 H            1 COS400   0.0000
    69 HAP         16.8460    68.4488   -43.0214 H            1 COS400   0.0000
    70 H21         16.9854    70.2606   -40.8684 H            1 COS400   0.0000
    71 H8P         18.4310    69.6310   -40.1704 H            1 COS400   0.0000
    72 H7P1        20.4859    67.6088   -40.3559 H            1 COS400   0.0000
    73 H7P2        20.2953    68.6594   -39.1204 H            1 COS400   0.0000
    74 H6P1        21.4109    70.3009   -40.1758 H            1 COS400   0.0000
    75 H6P2        21.0951    69.6897   -41.6568 H            1 COS400   0.0000
    76 H4P         23.6944    70.6390   -40.6352 H            1 COS400   0.0000
    77 H3P1        25.1852    68.3382   -41.3883 H            1 COS400   0.0000
    78 H3P2        25.4431    68.8199   -39.8494 H            1 COS400   0.0000
    79 H2P1        26.1449    70.9576   -40.6928 H            1 COS400   0.0000
    80 H2P2        26.0094    70.3631   -42.2077 H            1 COS400   0.0000
    81 H'P         27.5484    69.6212   -38.6318 H            1 COS400   0.0000
@<TRIPOS>BOND
     1    1    2      ar
     2    1    6      ar
     3    2    3      ar
     4    3    4      ar
     5    4    5      ar
     6    4   10       1
     7    5    6      ar
     8    5    8       1
     9    6    7       1
    10    8    9       2
    11    9   10       1
    12   10   11       1
    13   11   12       1
    14   11   21       1
    15   12   13       1
    16   12   14       1
    17   14   15       1
    18   14   20       1
    19   15   16       1
    20   16   17      ar
    21   16   18      ar
    22   16   19      ar
    23   20   21       1
    24   20   22       1
    25   22   23       1
    26   23   24       1
    27   24   25      ar
    28   24   26      ar
    29   24   27       1
    30   27   28       1
    31   28   29      ar
    32   28   30      ar
    33   28   31       1
    34   31   33       1
    35   32   33       1
    36   32   34       1
    37   32   35       1
    38   32   36       1
    39   36   37       1
    40   36   38       1
    41   38   39       2
    42   38   40      am
    43   40   41       1
    44   41   42       1
    45   42   43       1
    46   43   44       2
    47   43   45      am
    48   45   46       1
    49   46   47       1
    50   47   48       1
    51   48   49       1
    52    2   50       1
    53    7   51       1
    54    7   52       1
    55    9   53       1
    56   11   54       1
    57   12   55       1
    58   13   56       1
    59   14   57       1
    60   49   81       1
    61   47   80       1
    62   20   58       1
    63   22   59       1
    64   22   60       1
    65   47   79       1
    66   46   78       1
    67   33   61       1
    68   33   62       1
    69   34   63       1
    70   34   64       1
    71   34   65       1
    72   35   66       1
    73   35   67       1
    74   35   68       1
    75   36   69       1
    76   37   70       1
    77   40   71       1
    78   41   72       1
    79   41   73       1
    80   42   74       1
    81   42   75       1
    82   45   76       1
    83   46   77       1
@<TRIPOS>SUBSTRUCTURE
     1 COS400      1 GROUP             4 B     COS     0 **** COS B 400
