@<TRIPOS>MOLECULE
2qa2_FAD_1_ligand
   84    89     1     0     0
SMALL
NO_CHARGES


@<TRIPOS>ATOM
     1 PA         -26.2040   -24.7320    15.3640 P.3          1 FAD500   0.0000
     2 O1A        -26.9580   -23.9580    16.4380 O.co2        1 FAD500   0.0000
     3 O2A        -24.9090   -24.1340    14.8720 O.co2        1 FAD500  -1.0000
     4 O5B        -25.8800   -26.1670    16.0000 O.3          1 FAD500   0.0000
     5 C5B        -25.2220   -27.1550    15.2610 C.3          1 FAD500   0.0000
     6 C4B        -24.7050   -28.1870    16.2350 C.3          1 FAD500   0.0000
     7 O4B        -24.1170   -29.2410    15.5190 O.3          1 FAD500   0.0000
     8 C3B        -23.6320   -27.6290    17.1520 C.3          1 FAD500   0.0000
     9 O3B        -24.0600   -27.7700    18.4870 O.3          1 FAD500   0.0000
    10 C2B        -22.4240   -28.5020    16.8890 C.3          1 FAD500   0.0000
    11 O2B        -21.7680   -28.8720    18.0680 O.3          1 FAD500   0.0000
    12 C1B        -23.0210   -29.7250    16.2380 C.3          1 FAD500   0.0000
    13 N9A        -22.1240   -30.2990    15.2490 N.pl3        1 FAD500   0.0000
    14 C8A        -21.4960   -29.6690    14.2020 C.2          1 FAD500   0.0000
    15 N7A        -20.7590   -30.5780    13.5180 N.2          1 FAD500   0.0000
    16 C5A        -20.9290   -31.7740    14.1210 C.ar         1 FAD500   0.0000
    17 C6A        -20.4250   -33.0350    13.8560 C.ar         1 FAD500   0.0000
    18 N6A        -19.3990   -33.1630    13.0210 N.pl3        1 FAD500   0.0000
    19 N1A        -20.7860   -34.0900    14.6700 N.ar         1 FAD500   0.0000
    20 C2A        -21.6370   -33.9030    15.7430 C.ar         1 FAD500   0.0000
    21 N3A        -22.1270   -32.6490    16.0090 N.ar         1 FAD500   0.0000
    22 C4A        -21.7840   -31.6120    15.2080 C.ar         1 FAD500   0.0000
    23 N1         -30.9730   -16.2750    14.9300 N.2          1 FAD500   0.0000
    24 C2         -32.2290   -15.8060    15.2340 C.2          1 FAD500   0.0000
    25 O2         -33.2160   -16.4470    14.8740 O.2          1 FAD500   0.0000
    26 N3         -32.3590   -14.6350    15.9440 N.pl3        1 FAD500   0.0000
    27 C4         -31.2250   -13.9530    16.3370 C.2          1 FAD500   0.0000
    28 O4         -31.3410   -12.9090    16.9650 O.2          1 FAD500   0.0000
    29 C4X        -29.9450   -14.4170    16.0170 C.2          1 FAD500   0.0000
    30 N5         -28.7890   -13.7240    16.4150 N.2          1 FAD500   0.0000
    31 C5X        -27.5240   -14.2090    16.0930 C.ar         1 FAD500   0.0000
    32 C6         -26.3720   -13.5230    16.4840 C.ar         1 FAD500   0.0000
    33 C7         -25.0970   -14.0060    16.1490 C.ar         1 FAD500   0.0000
    34 C7M        -23.9500   -13.0410    16.1140 C.3          1 FAD500   0.0000
    35 C8         -24.9820   -15.2040    15.4300 C.ar         1 FAD500   0.0000
    36 C8M        -23.6320   -15.7890    15.1070 C.3          1 FAD500   0.0000
    37 C9         -26.1380   -15.8950    15.0530 C.ar         1 FAD500   0.0000
    38 C9A        -27.4110   -15.4050    15.3750 C.ar         1 FAD500   0.0000
    39 N10        -28.5590   -16.0940    14.9890 N.pl3        1 FAD500   0.0000
    40 C10        -29.8250   -15.5980    15.3000 C.2          1 FAD500   0.0000
    41 C1'        -28.4320   -17.3000    14.0860 C.3          1 FAD500   0.0000
    42 C2'        -28.6110   -18.5610    14.8950 C.3          1 FAD500   0.0000
    43 O2'        -27.6870   -18.4780    15.9550 O.3          1 FAD500   0.0000
    44 C3'        -28.3820   -19.8260    14.0780 C.3          1 FAD500   0.0000
    45 O3'        -29.3250   -19.9000    13.0520 O.3          1 FAD500   0.0000
    46 C4'        -28.6590   -21.0640    14.9220 C.3          1 FAD500   0.0000
    47 O4'        -28.2420   -20.8640    16.2660 O.3          1 FAD500   0.0000
    48 C5'        -28.0230   -22.2970    14.2890 C.3          1 FAD500   0.0000
    49 O5'        -29.0180   -23.2750    14.0550 O.3          1 FAD500   0.0000
    50 P          -28.6740   -24.8460    13.9580 P.3          1 FAD500   0.0000
    51 O1P        -29.0550   -25.3320    12.5770 O.co2        1 FAD500   0.0000
    52 O2P        -29.3160   -25.5790    15.1490 O.co2        1 FAD500  -1.0000
    53 O3P        -27.0680   -24.9790    14.0250 O.3          1 FAD500   0.0000
    54 H5B1       -24.4594   -26.7514    14.7554 H            1 FAD500   0.0000
    55 H5B2       -25.8591   -27.5814    14.6189 H            1 FAD500   0.0000
    56 H4B        -25.4637   -28.5382    16.7836 H            1 FAD500   0.0000
    57 H3B        -23.4374   -26.6721    16.9364 H            1 FAD500   0.0000
    58 H5         -24.2092   -28.7380    18.6887 H            1 FAD500   0.0000
    59 H2B        -21.7909   -28.0456    16.2638 H            1 FAD500   0.0000
    60 H7         -22.3974   -29.3832    18.6533 H            1 FAD500   0.0000
    61 H1B        -23.2993   -30.4033    16.9180 H            1 FAD500   0.0000
    62 H8A        -21.5706   -28.6967    13.9803 H            1 FAD500   0.0000
    63 H6A1       -19.0264   -34.0694    12.8220 H            1 FAD500   0.0000
    64 H6A2       -18.9996   -32.3529    12.5918 H            1 FAD500   0.0000
    65 H2A        -21.8941   -34.6768    16.3220 H            1 FAD500   0.0000
    66 H13        -33.2659   -14.2813    16.1731 H            1 FAD500   0.0000
    67 H14        -26.4564   -12.6765    17.0096 H            1 FAD500   0.0000
    68 H7M1       -23.1131   -13.5269    15.8620 H            1 FAD500   0.0000
    69 H7M2       -24.1362   -12.3262    15.4400 H            1 FAD500   0.0000
    70 H7M3       -23.8356   -12.6263    17.0167 H            1 FAD500   0.0000
    71 H8M1       -23.7511   -16.6384    14.5929 H            1 FAD500   0.0000
    72 H8M2       -23.1091   -15.1373    14.5575 H            1 FAD500   0.0000
    73 H8M3       -23.1395   -15.9797    15.9562 H            1 FAD500   0.0000
    74 H21        -26.0549   -16.7526    14.5455 H            1 FAD500   0.0000
    75 H1'1       -27.5269   -17.3033    13.6609 H            1 FAD500   0.0000
    76 H1'2       -29.1340   -17.2585    13.3751 H            1 FAD500   0.0000
    77 H2'        -29.5376   -18.5787    15.2707 H            1 FAD500   0.0000
    78 H25        -28.1766   -18.5016    16.8266 H            1 FAD500   0.0000
    79 H3'        -27.4528   -19.8477    13.7091 H            1 FAD500   0.0000
    80 H27        -28.9311   -20.3856    12.2716 H            1 FAD500   0.0000
    81 H4'        -29.6487   -21.2068    14.9317 H            1 FAD500   0.0000
    82 H29        -27.2604   -20.6741    16.2857 H            1 FAD500   0.0000
    83 H5'1       -27.3296   -22.6684    14.9065 H            1 FAD500   0.0000
    84 H5'2       -27.5951   -22.0430    13.4216 H            1 FAD500   0.0000
@<TRIPOS>BOND
     1    1    2      ar
     2    1    3      ar
     3    1    4       1
     4    1   53       1
     5    4    5       1
     6    5    6       1
     7    6    7       1
     8    6    8       1
     9    7   12       1
    10    8    9       1
    11    8   10       1
    12   10   11       1
    13   10   12       1
    14   12   13       1
    15   13   14       1
    16   13   22       1
    17   14   15       2
    18   15   16       1
    19   16   17      ar
    20   16   22      ar
    21   17   18       1
    22   17   19      ar
    23   19   20      ar
    24   20   21      ar
    25   21   22      ar
    26   23   24       1
    27   23   40       2
    28   24   25       2
    29   24   26       1
    30   26   27       1
    31   27   28       2
    32   27   29       1
    33   29   30       2
    34   29   40       1
    35   30   31       1
    36   31   32      ar
    37   31   38      ar
    38   32   33      ar
    39   33   34       1
    40   33   35      ar
    41   35   36       1
    42   35   37      ar
    43   37   38      ar
    44   38   39       1
    45   39   40       1
    46   39   41       1
    47   41   42       1
    48   42   43       1
    49   42   44       1
    50   44   45       1
    51   44   46       1
    52   46   47       1
    53   46   48       1
    54   48   49       1
    55   49   50       1
    56   50   51      ar
    57   50   52      ar
    58   50   53       1
    59   48   84       1
    60    5   54       1
    61    5   55       1
    62    6   56       1
    63    8   57       1
    64    9   58       1
    65   10   59       1
    66   11   60       1
    67   12   61       1
    68   14   62       1
    69   18   63       1
    70   18   64       1
    71   20   65       1
    72   26   66       1
    73   32   67       1
    74   34   68       1
    75   34   69       1
    76   34   70       1
    77   36   71       1
    78   36   72       1
    79   36   73       1
    80   37   74       1
    81   41   75       1
    82   41   76       1
    83   42   77       1
    84   43   78       1
    85   44   79       1
    86   45   80       1
    87   46   81       1
    88   47   82       1
    89   48   83       1
@<TRIPOS>SUBSTRUCTURE
     1 FAD500      1 GROUP             4 A     FAD     0 **** FAD A 500
