@<TRIPOS>MOLECULE
1ml6_GBX_1_ligand
   72    76     1     0     0
SMALL
NO_CHARGES


@<TRIPOS>ATOM
     1 O2          31.4310    12.6860    13.8420 O.2          1 GBX230   0.0000
     2 C1          27.2640     6.5650    11.3820 C.2          1 GBX230   0.0000
     3 C2          31.5620    12.0840    14.9160 C.2          1 GBX230   0.0000
     4 C3          30.6500    14.6730    17.2530 C.2          1 GBX230   0.0000
     5 N1          25.8630     6.1350    13.4040 N.3          1 GBX230   0.0000
     6 C7          34.7540     7.6220    19.3860 C.3          1 GBX230   0.0000
     7 N2          30.5950     9.9860    14.0370 N.am         1 GBX230   0.0000
     8 N3          31.6920    12.6970    16.0920 N.am         1 GBX230   0.0000
     9 CA1         26.8000     7.0970    12.7580 C.3          1 GBX230   0.0000
    10 O11         27.6260     7.3360    10.4950 O.co2        1 GBX230   0.0000
    11 O12         27.2610     5.3320    11.2360 O.co2        1 GBX230  -1.0000
    12 CB1         28.0020     7.3260    13.6660 C.3          1 GBX230   0.0000
    13 CG1         28.9220     8.4600    13.2290 C.3          1 GBX230   0.0000
    14 CD1         29.8680     8.9050    14.3230 C.2          1 GBX230   0.0000
    15 OE1         29.9320     8.2920    15.4030 O.2          1 GBX230   0.0000
    16 CA2         31.5790    10.5590    14.9570 C.3          1 GBX230   0.0000
    17 CB2         32.9830    10.0390    14.6230 C.3          1 GBX230   0.0000
    18 SG2         34.1510    10.1260    15.9930 S.3          1 GBX230   0.0000
    19 CA3         31.7010    14.1500    16.2800 C.3          1 GBX230   0.0000
    20 O31         30.5840    15.8790    17.5050 O.co2        1 GBX230   0.0000
    21 O32         29.8710    13.8490    17.7780 O.co2        1 GBX230  -1.0000
    22 O7          34.4260     8.6510    19.9990 O.3          1 GBX230   0.0000
    23 C8          33.7570     7.0990    18.7740 C.3          1 GBX230   0.0000
    24 O8          33.9940     5.9290    18.4290 O.3          1 GBX230   0.0000
    25 C9          33.2160     7.9690    17.5530 C.3          1 GBX230   0.0000
    26 O9          32.1730     7.2500    16.8830 O.3          1 GBX230   0.0000
    27 C10         34.3420     8.3810    16.4910 C.3          1 GBX230   0.0000
    28 C1'         37.2700     7.7600    19.0270 C.ar         1 GBX230   0.0000
    29 C2'         35.9510     7.8650    18.4780 C.ar         1 GBX230   0.0000
    30 C3'         35.7610     8.2240    17.0770 C.ar         1 GBX230   0.0000
    31 C4'         36.8080     8.6950    14.8210 C.ar         1 GBX230   0.0000
    32 C5'         37.9610     8.9320    14.0190 C.ar         1 GBX230   0.0000
    33 C6'         40.3950     9.1490    13.7990 C.ar         1 GBX230   0.0000
    34 C7'         41.6950     9.0890    14.3800 C.ar         1 GBX230   0.0000
    35 C8'         41.8640     8.7560    15.7650 C.ar         1 GBX230   0.0000
    36 C9'         40.8800     8.1460    17.9610 C.ar         1 GBX230   0.0000
    37 C9A         39.7250     7.8960    18.7760 C.ar         1 GBX230   0.0000
    38 C11         38.4120     7.9880    18.2150 C.ar         1 GBX230   0.0000
    39 C12         38.2480     8.3180    16.8140 C.ar         1 GBX230   0.0000
    40 C13         36.9320     8.4250    16.2350 C.ar         1 GBX230   0.0000
    41 C16         39.2500     8.8890    14.5930 C.ar         1 GBX230   0.0000
    42 C17         39.4070     8.5640    15.9960 C.ar         1 GBX230   0.0000
    43 C18         40.7270     8.4890    16.5770 C.ar         1 GBX230   0.0000
    44 H1          26.3822     5.4873    13.9615 H            1 GBX230   0.0000
    45 H2          35.0470     6.9591    20.0750 H            1 GBX230   0.0000
    46 H3          30.4612    10.4272    13.1496 H            1 GBX230   0.0000
    47 H4          31.7906    12.1236    16.9053 H            1 GBX230   0.0000
    48 HA1         26.3266     7.9676    12.6241 H            1 GBX230   0.0000
    49 HB11        28.5381     6.4822    13.6922 H            1 GBX230   0.0000
    50 HB12        27.6641     7.5349    14.5837 H            1 GBX230   0.0000
    51 HG11        28.3593     9.2405    12.9566 H            1 GBX230   0.0000
    52 HG12        29.4621     8.1494    12.4468 H            1 GBX230   0.0000
    53 HA2         31.3485    10.2671    15.8853 H            1 GBX230   0.0000
    54 HB21        33.3466    10.5825    13.8664 H            1 GBX230   0.0000
    55 HB22        32.9038     9.0834    14.3391 H            1 GBX230   0.0000
    56 HA31        32.6023    14.4141    16.6234 H            1 GBX230   0.0000
    57 HA32        31.5439    14.5801    15.3910 H            1 GBX230   0.0000
    58 H15         35.2257     9.0315    20.4634 H            1 GBX230   0.0000
    59 H16         33.0114     7.0515    19.4387 H            1 GBX230   0.0000
    60 H17         33.1972     5.5531    17.9559 H            1 GBX230   0.0000
    61 H18         32.8211     8.8092    17.9247 H            1 GBX230   0.0000
    62 H19         31.5258     7.8983    16.4818 H            1 GBX230   0.0000
    63 H20         34.2565     7.7993    15.6821 H            1 GBX230   0.0000
    64 H1'         37.3875     7.5238    19.9916 H            1 GBX230   0.0000
    65 H4'         35.9011     8.7157    14.4001 H            1 GBX230   0.0000
    66 H5'         37.8569     9.1299    13.0443 H            1 GBX230   0.0000
    67 H6'         40.2906     9.3747    12.8304 H            1 GBX230   0.0000
    68 H7'         42.4981     9.2811    13.8160 H            1 GBX230   0.0000
    69 H8'         42.7816     8.7115    16.1599 H            1 GBX230   0.0000
    70 H9'         41.7947     8.0807    18.3599 H            1 GBX230   0.0000
    71 H9A         39.8386     7.6565    19.7402 H            1 GBX230   0.0000
    72 H29         25.2205     6.6346    13.9850 H            1 GBX230   0.0000
@<TRIPOS>BOND
     1    1    3       2
     2    2    9       1
     3    2   10      ar
     4    2   11      ar
     5    3    8      am
     6    3   16       1
     7    4   19       1
     8    4   20      ar
     9    4   21      ar
    10    5    9       1
    11    6   22       1
    12    6   23       1
    13    6   29       1
    14    7   14      am
    15    7   16       1
    16    8   19       1
    17    9   12       1
    18   12   13       1
    19   13   14       1
    20   14   15       2
    21   16   17       1
    22   17   18       1
    23   18   27       1
    24   23   24       1
    25   23   25       1
    26   25   26       1
    27   25   27       1
    28   27   30       1
    29   28   29      ar
    30   28   38      ar
    31   29   30      ar
    32   30   40      ar
    33   31   32      ar
    34   31   40      ar
    35   32   41      ar
    36   33   34      ar
    37   33   41      ar
    38   34   35      ar
    39   35   43      ar
    40   36   37      ar
    41   36   43      ar
    42   37   38      ar
    43   38   39      ar
    44   39   40      ar
    45   39   42      ar
    46   41   42      ar
    47   42   43      ar
    48   36   70       1
    49    5   44       1
    50    6   45       1
    51    7   46       1
    52    8   47       1
    53    9   48       1
    54    5   72       1
    55   12   49       1
    56   12   50       1
    57   13   51       1
    58   13   52       1
    59   16   53       1
    60   17   54       1
    61   17   55       1
    62   19   56       1
    63   19   57       1
    64   37   71       1
    65   22   58       1
    66   23   59       1
    67   24   60       1
    68   25   61       1
    69   26   62       1
    70   27   63       1
    71   28   64       1
    72   31   65       1
    73   32   66       1
    74   33   67       1
    75   34   68       1
    76   35   69       1
@<TRIPOS>SUBSTRUCTURE
     1 GBX230      1 GROUP             4 A     GBX     0 **** GBX A 230
