@<TRIPOS>MOLECULE
5dif_GNP_1_ligand
   45    47     1     0     0
SMALL
NO_CHARGES


@<TRIPOS>ATOM
     1 PG           6.5850    37.5520    27.7140 P.3          1 GNP301   0.0000
     2 O1G          6.7630    36.2370    26.9880 O.co2        1 GNP301   0.0000
     3 O2G          6.2350    37.2640    29.1500 O.co2        1 GNP301  -1.0000
     4 O3G          7.8740    38.3380    27.6550 O.co2        1 GNP301  -1.0000
     5 N3B          5.3830    38.4040    26.9610 N.3          1 GNP301   0.0000
     6 PB           4.9050    39.9170    27.4440 P.3          1 GNP301   0.0000
     7 O1B          6.1140    40.7930    27.6870 O.co2        1 GNP301   0.0000
     8 O2B          4.0780    39.8270    28.7030 O.co2        1 GNP301  -1.0000
     9 O3A          4.0120    40.5340    26.2920 O.3          1 GNP301   0.0000
    10 PA           4.5180    41.5220    25.1680 P.3          1 GNP301   0.0000
    11 O1A          5.7320    40.9550    24.4750 O.co2        1 GNP301   0.0000
    12 O2A          4.8530    42.8560    25.8010 O.co2        1 GNP301  -1.0000
    13 O5'          3.3640    41.7470    24.1140 O.3          1 GNP301   0.0000
    14 C5'          2.7400    40.6300    23.5270 C.3          1 GNP301   0.0000
    15 C4'          1.7300    41.1060    22.4610 C.3          1 GNP301   0.0000
    16 O4'          0.7300    41.7070    23.0430 O.3          1 GNP301   0.0000
    17 C3'          2.3850    42.1430    21.5390 C.3          1 GNP301   0.0000
    18 O3'          2.0700    41.9010    20.2400 O.3          1 GNP301   0.0000
    19 C2'          1.7880    43.4860    21.9930 C.3          1 GNP301   0.0000
    20 O2'          1.7420    44.4410    20.8440 O.3          1 GNP301   0.0000
    21 C1'          0.5870    43.1630    22.3730 C.3          1 GNP301   0.0000
    22 N9           0.0210    44.0680    23.3110 N.pl3        1 GNP301   0.0000
    23 C8           0.5940    44.4870    24.4640 C.2          1 GNP301   0.0000
    24 N7          -0.2610    45.3360    25.0770 N.2          1 GNP301   0.0000
    25 C5          -1.3720    45.4440    24.3040 C.2          1 GNP301   0.0000
    26 C6          -2.5390    46.1750    24.4560 C.2          1 GNP301   0.0000
    27 O6          -2.7010    46.8810    25.4340 O.2          1 GNP301   0.0000
    28 N1          -3.5010    46.0940    23.5260 N.pl3        1 GNP301   0.0000
    29 C2          -3.3300    45.3000    22.4270 C.2          1 GNP301   0.0000
    30 N2          -4.3340    45.2070    21.4310 N.pl3        1 GNP301   0.0000
    31 N3          -2.1810    44.5820    22.2730 N.2          1 GNP301   0.0000
    32 C4          -1.2010    44.6600    23.2180 C.2          1 GNP301   0.0000
    33 H3B          5.6683    38.4973    26.0071 H            1 GNP301   0.0000
    34 H5'1         2.2596    40.1079    24.2317 H            1 GNP301   0.0000
    35 H5'2         3.4314    40.0503    23.0958 H            1 GNP301   0.0000
    36 H4'          1.4007    40.3279    21.9260 H            1 GNP301   0.0000
    37 H3'          3.3773    42.1427    21.6631 H            1 GNP301   0.0000
    38 H6           2.5063    42.5871    19.6578 H            1 GNP301   0.0000
    39 H2'          2.3114    43.8693    22.7540 H            1 GNP301   0.0000
    40 H8           2.5946    44.9625    20.8097 H            1 GNP301   0.0000
    41 H1'         -0.0083    43.1016    21.5718 H            1 GNP301   0.0000
    42 H10          1.4945    44.2153    24.8036 H            1 GNP301   0.0000
    43 H11         -4.3465    46.6163    23.6368 H            1 GNP301   0.0000
    44 H12         -4.1936    44.6214    20.6326 H            1 GNP301   0.0000
    45 H13         -5.1828    45.7269    21.5266 H            1 GNP301   0.0000
@<TRIPOS>BOND
     1    1    2      ar
     2    1    3      ar
     3    1    4      ar
     4    1    5       1
     5    5    6       1
     6    6    7      ar
     7    6    8      ar
     8    6    9       1
     9    9   10       1
    10   10   11      ar
    11   10   12      ar
    12   10   13       1
    13   13   14       1
    14   14   15       1
    15   15   16       1
    16   15   17       1
    17   16   21       1
    18   17   18       1
    19   17   19       1
    20   19   20       1
    21   19   21       1
    22   21   22       1
    23   22   23       1
    24   22   32       1
    25   23   24       2
    26   24   25       1
    27   25   26       1
    28   25   32       2
    29   26   27       2
    30   26   28       1
    31   28   29       1
    32   29   30       1
    33   29   31       2
    34   31   32       1
    35   30   45       1
    36   30   44       1
    37    5   33       1
    38   28   43       1
    39   23   42       1
    40   14   34       1
    41   14   35       1
    42   15   36       1
    43   17   37       1
    44   18   38       1
    45   19   39       1
    46   20   40       1
    47   21   41       1
@<TRIPOS>SUBSTRUCTURE
     1 GNP301      1 GROUP             4 A     GNP     0 **** GNP A 301
