@<TRIPOS>MOLECULE
1n9l_FMN_1_ligand
   50    52     1     0     0
SMALL
NO_CHARGES


@<TRIPOS>ATOM
     1 N1          11.9200    52.3910    17.0070 N.2          1 FMN500   0.0000
     2 C2          11.5420    53.1350    15.9310 C.2          1 FMN500   0.0000
     3 O2          10.5370    53.7650    15.8550 O.2          1 FMN500   0.0000
     4 N3          12.4000    53.1920    14.7710 N.pl3        1 FMN500   0.0000
     5 C4          13.6090    52.5460    14.6510 C.2          1 FMN500   0.0000
     6 O4          14.3020    52.6370    13.6060 O.2          1 FMN500   0.0000
     7 C4A         14.0420    51.7510    15.8010 C.2          1 FMN500   0.0000
     8 N5          15.1930    51.1050    15.7810 N.2          1 FMN500   0.0000
     9 C5A         15.5690    50.3610    16.8760 C.ar         1 FMN500   0.0000
    10 C6          16.8420    49.6520    16.8470 C.ar         1 FMN500   0.0000
    11 C7          17.2770    48.8900    17.9190 C.ar         1 FMN500   0.0000
    12 C7M         18.6180    48.1200    17.9360 C.3          1 FMN500   0.0000
    13 C8          16.4330    48.7830    19.1480 C.ar         1 FMN500   0.0000
    14 C8M         16.8650    47.9680    20.3580 C.3          1 FMN500   0.0000
    15 C9          15.2010    49.4460    19.2030 C.ar         1 FMN500   0.0000
    16 C9A         14.7420    50.2400    18.1070 C.ar         1 FMN500   0.0000
    17 N10         13.4910    50.9560    18.0720 N.pl3        1 FMN500   0.0000
    18 C10         13.1060    51.7220    16.9790 C.2          1 FMN500   0.0000
    19 C1'         12.5120    50.9120    19.2200 C.3          1 FMN500   0.0000
    20 C2'         12.7790    51.9170    20.3440 C.3          1 FMN500   0.0000
    21 O2'         14.1790    52.1290    20.5090 O.3          1 FMN500   0.0000
    22 C3'         12.2180    51.3810    21.6890 C.3          1 FMN500   0.0000
    23 O3'         12.8100    50.0230    21.8930 O.3          1 FMN500   0.0000
    24 C4'         10.7480    51.1040    21.7300 C.3          1 FMN500   0.0000
    25 O4'          9.9230    52.2610    21.3990 O.3          1 FMN500   0.0000
    26 C5'         10.4410    50.5810    23.1450 C.3          1 FMN500   0.0000
    27 O5'          9.3010    51.1820    23.7360 O.3          1 FMN500   0.0000
    28 P            9.2780    52.5350    24.5440 P.3          1 FMN500   0.0000
    29 O1P          9.7330    53.6340    23.6220 O.co2        1 FMN500   0.0000
    30 O2P         10.1970    52.4250    25.7910 O.co2        1 FMN500  -1.0000
    31 O3P          7.7910    52.5950    24.8930 O.co2        1 FMN500  -1.0000
    32 H1          12.0920    53.7431    13.9955 H            1 FMN500   0.0000
    33 H2          17.4169    49.7173    16.0314 H            1 FMN500   0.0000
    34 H7M1        18.7178    47.6437    18.8096 H            1 FMN500   0.0000
    35 H7M2        18.6295    47.4541    17.1901 H            1 FMN500   0.0000
    36 H7M3        19.3738    48.7643    17.8193 H            1 FMN500   0.0000
    37 H8M1        16.1628    48.0270    21.0676 H            1 FMN500   0.0000
    38 H8M2        16.9883    47.0126    20.0896 H            1 FMN500   0.0000
    39 H8M3        17.7278    48.3288    20.7121 H            1 FMN500   0.0000
    40 H9          14.6334    49.3626    20.0220 H            1 FMN500   0.0000
    41 H1'1        12.5383    49.9932    19.6139 H            1 FMN500   0.0000
    42 H1'2        11.5987    51.0920    18.8547 H            1 FMN500   0.0000
    43 H2'         12.3362    52.7860    20.1233 H            1 FMN500   0.0000
    44 H13         14.3319    52.7871    21.2462 H            1 FMN500   0.0000
    45 H3'         12.4774    51.9887    22.4396 H            1 FMN500   0.0000
    46 H15         12.1723    49.4563    22.4148 H            1 FMN500   0.0000
    47 H4'         10.5465    50.3760    21.0748 H            1 FMN500   0.0000
    48 H17         10.1051    52.9976    22.0504 H            1 FMN500   0.0000
    49 H5'1        11.2327    50.7629    23.7282 H            1 FMN500   0.0000
    50 H5'2        10.2864    49.5945    23.0910 H            1 FMN500   0.0000
@<TRIPOS>BOND
     1    1    2       1
     2    1   18       2
     3    2    3       2
     4    2    4       1
     5    4    5       1
     6    5    6       2
     7    5    7       1
     8    7    8       2
     9    7   18       1
    10    8    9       1
    11    9   10      ar
    12    9   16      ar
    13   10   11      ar
    14   11   12       1
    15   11   13      ar
    16   13   14       1
    17   13   15      ar
    18   15   16      ar
    19   16   17       1
    20   17   18       1
    21   17   19       1
    22   19   20       1
    23   20   21       1
    24   20   22       1
    25   22   23       1
    26   22   24       1
    27   24   25       1
    28   24   26       1
    29   26   27       1
    30   27   28       1
    31   28   29      ar
    32   28   30      ar
    33   28   31      ar
    34    4   32       1
    35   10   33       1
    36   12   34       1
    37   12   35       1
    38   12   36       1
    39   14   37       1
    40   14   38       1
    41   14   39       1
    42   15   40       1
    43   19   41       1
    44   19   42       1
    45   20   43       1
    46   21   44       1
    47   22   45       1
    48   23   46       1
    49   24   47       1
    50   25   48       1
    51   26   49       1
    52   26   50       1
@<TRIPOS>SUBSTRUCTURE
     1 FMN500      1 GROUP             4 A     FMN     0 **** FMN A 500
