@<TRIPOS>MOLECULE
3anx_MTA_2_ligand
   35    37     1     0     0
SMALL
NO_CHARGES


@<TRIPOS>ATOM
     1 CS          33.1430    29.5810   128.3330 C.3          1 MTA315   0.0000
     2 S5'         34.1410    29.5310   126.8180 S.3          1 MTA315   0.0000
     3 C5'         34.5830    28.4490   127.1990 C.3          1 MTA315   0.0000
     4 C4'         34.7200    26.9150   127.4260 C.3          1 MTA315   0.0000
     5 O4'         35.9720    26.2020   127.1140 O.3          1 MTA315   0.0000
     6 C2'         35.6430    25.7790   129.4220 C.3          1 MTA315   0.0000
     7 O2'         35.3980    24.6910   130.3260 O.3          1 MTA315   0.0000
     8 C3'         34.4160    26.4670   128.8610 C.3          1 MTA315   0.0000
     9 O3'         33.4890    25.3890   128.7370 O.3          1 MTA315   0.0000
    10 C1'         36.0920    25.1310   128.1370 C.3          1 MTA315   0.0000
    11 N9          37.4140    24.3900   128.3050 N.pl3        1 MTA315   0.0000
    12 C8          38.4740    24.7680   129.0900 C.2          1 MTA315   0.0000
    13 N7          39.4980    23.8800   128.9490 N.2          1 MTA315   0.0000
    14 C5          39.1180    22.9020   128.0690 C.ar         1 MTA315   0.0000
    15 C6          39.7350    21.6630   127.4450 C.ar         1 MTA315   0.0000
    16 N6          41.0100    21.2720   127.7580 N.pl3        1 MTA315   0.0000
    17 N1          38.9860    20.9250   126.5760 N.ar         1 MTA315   0.0000
    18 C2          37.7340    21.3120   126.2410 C.ar         1 MTA315   0.0000
    19 N3          37.1210    22.4150   126.7470 N.ar         1 MTA315   0.0000
    20 C4          37.7380    23.2350   127.6570 C.ar         1 MTA315   0.0000
    21 HS1         32.6014    30.4215   128.3478 H            1 MTA315   0.0000
    22 HS2         32.5316    28.7900   128.3556 H            1 MTA315   0.0000
    23 HS3         33.7461    29.5590   129.1303 H            1 MTA315   0.0000
    24 H5'1        34.6134    28.6931   128.1683 H            1 MTA315   0.0000
    25 H5'2        35.4906    28.5684   126.7966 H            1 MTA315   0.0000
    26 H4'         34.0168    26.4919   126.8546 H            1 MTA315   0.0000
    27 H2'         36.3155    26.4277   129.7782 H            1 MTA315   0.0000
    28 H8          35.8104    24.8958   131.2137 H            1 MTA315   0.0000
    29 H3'         34.0810    27.2088   129.4419 H            1 MTA315   0.0000
    30 H10         33.9047    24.6514   128.2049 H            1 MTA315   0.0000
    31 H1'         35.4048    24.4410   127.9099 H            1 MTA315   0.0000
    32 H12         38.4924    25.5761   129.6788 H            1 MTA315   0.0000
    33 H13         41.3994    20.4529   127.3368 H            1 MTA315   0.0000
    34 H14         41.5513    21.8057   128.4077 H            1 MTA315   0.0000
    35 H15         37.2295    20.7539   125.5823 H            1 MTA315   0.0000
@<TRIPOS>BOND
     1    1    2       1
     2    2    3       1
     3    3    4       1
     4    4    5       1
     5    4    8       1
     6    5   10       1
     7    6    7       1
     8    6    8       1
     9    6   10       1
    10    8    9       1
    11   10   11       1
    12   11   12       1
    13   11   20       1
    14   12   13       2
    15   13   14       1
    16   14   15      ar
    17   14   20      ar
    18   15   16       1
    19   15   17      ar
    20   17   18      ar
    21   18   19      ar
    22   19   20      ar
    23    1   21       1
    24    1   22       1
    25    1   23       1
    26    3   24       1
    27    3   25       1
    28    4   26       1
    29    6   27       1
    30    7   28       1
    31    8   29       1
    32    9   30       1
    33   10   31       1
    34   12   32       1
    35   16   33       1
    36   16   34       1
    37   18   35       1
@<TRIPOS>SUBSTRUCTURE
     1 MTA315      1 GROUP             4 B     MTA     0 **** MTA B 315
