@<TRIPOS>MOLECULE
3lq2_TDP_2_ligand
   43    44     1     0     0
SMALL
NO_CHARGES


@<TRIPOS>ATOM
     1 N1'         26.4320   -36.7380     7.8670 N.ar         1 TDP887   1.0000
     2 C2'         27.1430   -37.6420     8.6320 C.ar         1 TDP887   0.0000
     3 C2A         27.1030   -39.0700     8.2110 C.3          1 TDP887   0.0000
     4 N3'         27.8530   -37.2800     9.7080 N.ar         1 TDP887   0.0000
     5 C4'         27.8850   -35.9330    10.0790 C.ar         1 TDP887   0.0000
     6 N4'         28.6130   -35.6420    11.1370 N.pl3        1 TDP887   0.0000
     7 C5'         27.1350   -34.9270     9.2850 C.ar         1 TDP887   0.0000
     8 C6'         26.4340   -35.3940     8.1990 C.ar         1 TDP887   0.0000
     9 C35         27.1270   -33.4360     9.5750 C.3          1 TDP887   0.0000
    10 N3          26.4190   -33.0470    10.8630 N.2          1 TDP887   1.0000
    11 C2          27.0620   -32.7290    11.9770 C.2          1 TDP887   0.0000
    12 S1          26.0350   -32.2800    13.2160 S.3          1 TDP887   0.0000
    13 C5          24.6440   -32.5230    12.2220 C.2          1 TDP887   0.0000
    14 C4          25.0120   -32.9390    10.9690 C.2          1 TDP887   0.0000
    15 C4A         24.1120   -33.2440     9.8060 C.3          1 TDP887   0.0000
    16 C5A         23.2580   -32.3070    12.7480 C.3          1 TDP887   0.0000
    17 C5B         23.0360   -32.9860    14.0750 C.3          1 TDP887   0.0000
    18 O5G         21.6160   -32.9280    14.3680 O.3          1 TDP887   0.0000
    19 P1          20.9320   -33.8560    15.5010 P.3          1 TDP887   0.0000
    20 O11         21.6060   -33.3440    16.8720 O.3          1 TDP887   0.0000
    21 O12         19.4920   -33.5350    15.5310 O.co2        1 TDP887   0.0000
    22 O13         21.3380   -35.2760    15.2810 O.co2        1 TDP887  -1.0000
    23 P2          21.6670   -31.9590    17.6930 P.3          1 TDP887   0.0000
    24 O21         21.6630   -32.3560    19.2040 O.co2        1 TDP887   0.0000
    25 O22         22.9600   -31.3080    17.3640 O.co2        1 TDP887  -1.0000
    26 O23         20.4350   -31.1890    17.3900 O.co2        1 TDP887  -1.0000
    27 H2A1        27.6527   -39.6187     8.8408 H            1 TDP887   0.0000
    28 H2A2        26.1574   -39.3950     8.2240 H            1 TDP887   0.0000
    29 H2A3        27.4721   -39.1551     7.2855 H            1 TDP887   0.0000
    30 H4'1        28.6776   -34.6960    11.4547 H            1 TDP887   0.0000
    31 H4'2        29.1012   -36.3670    11.6228 H            1 TDP887   0.0000
    32 H6'         25.9148   -34.7499     7.6372 H            1 TDP887   0.0000
    33 H7          26.6703   -32.9727     8.8155 H            1 TDP887   0.0000
    34 H8          28.0754   -33.1243     9.6337 H            1 TDP887   0.0000
    35 H9          28.0576   -32.7550    12.0668 H            1 TDP887   0.0000
    36 H4A1        23.1590   -33.1100    10.0779 H            1 TDP887   0.0000
    37 H4A2        24.3309   -32.6323     9.0458 H            1 TDP887   0.0000
    38 H4A3        24.2468   -34.1927     9.5200 H            1 TDP887   0.0000
    39 H5A1        22.6028   -32.6721    12.0866 H            1 TDP887   0.0000
    40 H5A2        23.1063   -31.3250    12.8602 H            1 TDP887   0.0000
    41 H5B1        23.5509   -32.5130    14.7900 H            1 TDP887   0.0000
    42 H5B2        23.3346   -33.9390    14.0241 H            1 TDP887   0.0000
    43 H1'         25.9149   -37.0549     7.0719 H            1 TDP887   0.0000
@<TRIPOS>BOND
     1    1    2      ar
     2    1    8      ar
     3    2    3       1
     4    2    4      ar
     5    4    5      ar
     6    5    6       1
     7    5    7      ar
     8    7    8      ar
     9    7    9       1
    10    9   10       1
    11   10   11       2
    12   10   14       1
    13   11   12       1
    14   12   13       1
    15   13   14       2
    16   13   16       1
    17   14   15       1
    18   16   17       1
    19   17   18       1
    20   18   19       1
    21   19   20       1
    22   19   21      ar
    23   19   22      ar
    24   20   23       1
    25   23   24      ar
    26   23   25      ar
    27   23   26      ar
    28    3   27       1
    29    3   28       1
    30    3   29       1
    31    6   30       1
    32    6   31       1
    33    8   32       1
    34    9   33       1
    35    9   34       1
    36   11   35       1
    37   15   36       1
    38   15   37       1
    39   15   38       1
    40   16   39       1
    41   16   40       1
    42   17   41       1
    43   17   42       1
    44    1   43       1
@<TRIPOS>SUBSTRUCTURE
     1 TDP887      1 GROUP             4 B     TDP     0 **** TDP B 887
