@<TRIPOS>MOLECULE
4k6m_SAH_2_ligand
   46    48     1     0     0
SMALL
NO_CHARGES


@<TRIPOS>ATOM
     1 N          -22.4230   -26.5730    60.6940 N.4          1 SAH1001   1.0000
     2 CA         -22.1860   -28.0110    60.5560 C.3          1 SAH1001   0.0000
     3 CB         -20.7310   -28.2690    60.1710 C.3          1 SAH1001   0.0000
     4 CG         -20.5880   -28.3760    58.6560 C.3          1 SAH1001   0.0000
     5 SD         -18.8850   -28.4850    58.0620 S.3          1 SAH1001   0.0000
     6 C          -22.6280   -28.8310    61.7760 C.2          1 SAH1001   0.0000
     7 O          -22.8070   -30.0510    61.6960 O.co2        1 SAH1001   0.0000
     8 OXT        -22.8280   -28.2870    62.8630 O.co2        1 SAH1001  -1.0000
     9 C5'        -19.4170   -27.6890    56.5280 C.3          1 SAH1001   0.0000
    10 C4'        -20.0700   -28.6930    55.5850 C.3          1 SAH1001   0.0000
    11 O4'        -20.3910   -28.0290    54.3780 O.3          1 SAH1001   0.0000
    12 C3'        -19.1300   -29.8550    55.2320 C.3          1 SAH1001   0.0000
    13 O3'        -19.6750   -31.1050    55.6110 O.3          1 SAH1001   0.0000
    14 C2'        -18.9230   -29.7550    53.7280 C.3          1 SAH1001   0.0000
    15 O2'        -18.9680   -30.9880    53.0570 O.3          1 SAH1001   0.0000
    16 C1'        -20.0860   -28.8790    53.2830 C.3          1 SAH1001   0.0000
    17 N9         -19.7690   -28.1880    52.0130 N.pl3        1 SAH1001   0.0000
    18 C8         -18.5510   -27.7270    51.5880 C.2          1 SAH1001   0.0000
    19 N7         -18.7010   -27.1860    50.3570 N.2          1 SAH1001   0.0000
    20 C5         -19.9970   -27.2980    49.9830 C.ar         1 SAH1001   0.0000
    21 C6         -20.6850   -26.9150    48.8310 C.ar         1 SAH1001   0.0000
    22 N6         -20.0490   -26.3060    47.8270 N.pl3        1 SAH1001   0.0000
    23 N1         -22.0450   -27.1800    48.7490 N.ar         1 SAH1001   0.0000
    24 C2         -22.7080   -27.8140    49.7950 C.ar         1 SAH1001   0.0000
    25 N3         -22.0230   -28.1890    50.9310 N.ar         1 SAH1001   0.0000
    26 C4         -20.6840   -27.9360    51.0180 C.ar         1 SAH1001   0.0000
    27 H1         -23.1289   -26.2878    60.0456 H            1 SAH1001   0.0000
    28 H2         -22.7259   -26.3730    61.6258 H            1 SAH1001   0.0000
    29 HA         -22.7445   -28.3202    59.7862 H            1 SAH1001   0.0000
    30 HB1        -20.4264   -29.1238    60.5911 H            1 SAH1001   0.0000
    31 HB2        -20.1645   -27.5144    60.5022 H            1 SAH1001   0.0000
    32 HG1        -21.0095   -27.5672    58.2458 H            1 SAH1001   0.0000
    33 HG2        -21.0757   -29.1953    58.3545 H            1 SAH1001   0.0000
    34 H5'1       -18.6209   -27.2867    56.0760 H            1 SAH1001   0.0000
    35 H5'2       -20.0761   -26.9690    56.7454 H            1 SAH1001   0.0000
    36 H4'        -20.9047   -29.0518    56.0027 H            1 SAH1001   0.0000
    37 H3'        -18.2537   -29.7230    55.6952 H            1 SAH1001   0.0000
    38 H12        -19.0369   -31.8349    55.3660 H            1 SAH1001   0.0000
    39 H2'        -18.0570   -29.2941    53.5342 H            1 SAH1001   0.0000
    40 H14        -18.6474   -31.7119    53.6679 H            1 SAH1001   0.0000
    41 H1'        -20.8754   -29.4717    53.1232 H            1 SAH1001   0.0000
    42 H16        -17.6946   -27.7812    52.1015 H            1 SAH1001   0.0000
    43 H17        -20.5528   -26.0362    47.0064 H            1 SAH1001   0.0000
    44 H18        -19.0689   -26.1197    47.8958 H            1 SAH1001   0.0000
    45 H19        -23.6881   -27.9989    49.7223 H            1 SAH1001   0.0000
    46 H20        -21.5762   -26.0759    60.5048 H            1 SAH1001   0.0000
@<TRIPOS>BOND
     1    1    2       1
     2    2    3       1
     3    2    6       1
     4    3    4       1
     5    4    5       1
     6    5    9       1
     7    6    7      ar
     8    6    8      ar
     9    9   10       1
    10   10   11       1
    11   10   12       1
    12   11   16       1
    13   12   13       1
    14   12   14       1
    15   14   15       1
    16   14   16       1
    17   16   17       1
    18   17   18       1
    19   17   26       1
    20   18   19       2
    21   19   20       1
    22   20   21      ar
    23   20   26      ar
    24   21   22       1
    25   21   23      ar
    26   23   24      ar
    27   24   25      ar
    28   25   26      ar
    29    1   27       1
    30    1   28       1
    31    2   29       1
    32    3   30       1
    33    3   31       1
    34    4   32       1
    35    4   33       1
    36    1   46       1
    37    9   34       1
    38    9   35       1
    39   10   36       1
    40   12   37       1
    41   13   38       1
    42   14   39       1
    43   15   40       1
    44   16   41       1
    45   18   42       1
    46   22   43       1
    47   22   44       1
    48   24   45       1
@<TRIPOS>SUBSTRUCTURE
     1 SAH1001     1 GROUP             4 B     SAH     0 **** SAH B1001
