@<TRIPOS>MOLECULE
1cx4_CMP_1_ligand
   34    37     1     0     0
SMALL
NO_CHARGES


@<TRIPOS>ATOM
     1 P           91.9170    61.5340    -7.3910 P.3          1 CMP440   0.0000
     2 O1P         90.8770    62.5840    -7.4830 O.3          1 CMP440   0.0000
     3 O2P         92.8530    61.3280    -8.5170 O.2          1 CMP440   0.0000
     4 O5'         91.2430    60.1130    -7.0720 O.3          1 CMP440   0.0000
     5 C5'         91.9910    59.0810    -6.4030 C.3          1 CMP440   0.0000
     6 C4'         92.6540    59.6870    -5.2000 C.3          1 CMP440   0.0000
     7 O4'         93.5130    58.7940    -4.4550 O.3          1 CMP440   0.0000
     8 C3'         93.6140    60.7820    -5.5900 C.3          1 CMP440   0.0000
     9 O3'         92.8030    61.8260    -6.0850 O.3          1 CMP440   0.0000
    10 C2'         94.3410    61.0270    -4.2760 C.3          1 CMP440   0.0000
    11 O2'         93.5670    61.8280    -3.4070 O.3          1 CMP440   0.0000
    12 C1'         94.4400    59.5920    -3.7280 C.3          1 CMP440   0.0000
    13 N9          95.7660    58.9860    -3.8170 N.pl3        1 CMP440   0.0000
    14 C8          96.4970    58.4620    -2.7790 C.2          1 CMP440   0.0000
    15 N7          97.6660    57.9900    -3.1400 N.2          1 CMP440   0.0000
    16 C5          97.7080    58.2150    -4.5070 C.ar         1 CMP440   0.0000
    17 C6          98.6830    57.9380    -5.4780 C.ar         1 CMP440   0.0000
    18 N6          99.8610    57.3690    -5.2040 N.pl3        1 CMP440   0.0000
    19 N1          98.4100    58.2780    -6.7570 N.ar         1 CMP440   0.0000
    20 C2          97.2360    58.8630    -7.0260 C.ar         1 CMP440   0.0000
    21 N3          96.2420    59.1850    -6.1970 N.ar         1 CMP440   0.0000
    22 C4          96.5440    58.8270    -4.9380 C.ar         1 CMP440   0.0000
    23 H1P         91.0043    63.2450    -6.7435 H            1 CMP440   0.0000
    24 H5'1        92.6844    58.7108    -7.0211 H            1 CMP440   0.0000
    25 H5'2        91.3744    58.3478    -6.1163 H            1 CMP440   0.0000
    26 H4'         91.9555    60.0606    -4.5897 H            1 CMP440   0.0000
    27 H3'         94.2496    60.4628    -6.2929 H            1 CMP440   0.0000
    28 H2'         95.2466    61.4230    -4.4281 H            1 CMP440   0.0000
    29 H7          94.0677    62.6665    -3.1920 H            1 CMP440   0.0000
    30 H1'         94.1619    59.6017    -2.7675 H            1 CMP440   0.0000
    31 H9          96.1681    58.4422    -1.8349 H            1 CMP440   0.0000
    32 H10        100.5160    57.1964    -5.9396 H            1 CMP440   0.0000
    33 H11        100.0873    57.1159    -4.2634 H            1 CMP440   0.0000
    34 H12         97.0823    59.0915    -7.9873 H            1 CMP440   0.0000
@<TRIPOS>BOND
     1    1    2       1
     2    1    3       2
     3    1    4       1
     4    1    9       1
     5    4    5       1
     6    5    6       1
     7    6    7       1
     8    6    8       1
     9    7   12       1
    10    8    9       1
    11    8   10       1
    12   10   11       1
    13   10   12       1
    14   12   13       1
    15   13   14       1
    16   13   22       1
    17   14   15       2
    18   15   16       1
    19   16   17      ar
    20   16   22      ar
    21   17   18       1
    22   17   19      ar
    23   19   20      ar
    24   20   21      ar
    25   21   22      ar
    26    2   23       1
    27    5   24       1
    28    5   25       1
    29    6   26       1
    30    8   27       1
    31   10   28       1
    32   11   29       1
    33   12   30       1
    34   14   31       1
    35   18   32       1
    36   18   33       1
    37   20   34       1
@<TRIPOS>SUBSTRUCTURE
     1 CMP440      1 GROUP             4 A     CMP     0 **** CMP A 440
