@<TRIPOS>MOLECULE
2ztl_NAD_3_ligand
   70    74     1     0     0
SMALL
NO_CHARGES


@<TRIPOS>ATOM
     1 PA         -13.6780   -20.7830    37.4770 P.3          1 NAD300   0.0000
     2 O1A        -13.6020   -20.1240    38.8120 O.co2        1 NAD300   0.0000
     3 O2A        -14.4180   -22.0460    37.4160 O.co2        1 NAD300  -1.0000
     4 O5B        -12.2180   -20.9810    36.8590 O.3          1 NAD300   0.0000
     5 C5B        -11.2400   -19.9960    37.0480 C.3          1 NAD300   0.0000
     6 C4B         -9.9170   -20.6440    36.6690 C.3          1 NAD300   0.0000
     7 O4B         -8.9400   -19.6220    36.8340 O.3          1 NAD300   0.0000
     8 C3B         -9.5370   -21.8210    37.5850 C.3          1 NAD300   0.0000
     9 O3B         -8.6970   -22.7100    36.8630 O.3          1 NAD300   0.0000
    10 C2B         -8.6990   -21.0840    38.6220 C.3          1 NAD300   0.0000
    11 O2B         -7.7970   -21.9070    39.3310 O.3          1 NAD300   0.0000
    12 C1B         -7.9520   -20.0930    37.7290 C.3          1 NAD300   0.0000
    13 N9A         -7.3070   -18.9400    38.4260 N.pl3        1 NAD300   0.0000
    14 C8A         -7.9040   -18.0490    39.2970 C.2          1 NAD300   0.0000
    15 N7A         -6.9690   -17.1770    39.6980 N.2          1 NAD300   0.0000
    16 C5A         -5.7850   -17.4760    39.1020 C.ar         1 NAD300   0.0000
    17 C6A         -4.5100   -16.9340    39.1350 C.ar         1 NAD300   0.0000
    18 N6A         -4.2350   -15.8900    39.9310 N.pl3        1 NAD300   0.0000
    19 N1A         -3.4900   -17.5040    38.3790 N.ar         1 NAD300   0.0000
    20 C2A         -3.7230   -18.6010    37.5980 C.ar         1 NAD300   0.0000
    21 N3A         -4.9860   -19.1230    37.5840 N.ar         1 NAD300   0.0000
    22 C4A         -6.0000   -18.5800    38.2880 C.ar         1 NAD300   0.0000
    23 O3         -14.3120   -19.6380    36.5580 O.3          1 NAD300   0.0000
    24 PN         -14.9210   -19.7840    35.0910 P.3          1 NAD300   0.0000
    25 O1N        -16.3410   -19.4370    35.1950 O.co2        1 NAD300   0.0000
    26 O2N        -14.4980   -21.0380    34.3770 O.co2        1 NAD300  -1.0000
    27 O5D        -14.2780   -18.4750    34.3920 O.3          1 NAD300   0.0000
    28 C5D        -13.1800   -18.5550    33.4730 C.3          1 NAD300   0.0000
    29 C4D        -13.2130   -17.2570    32.6370 C.3          1 NAD300   0.0000
    30 O4D        -14.4740   -17.1730    32.0210 O.3          1 NAD300   0.0000
    31 C3D        -13.0710   -16.0050    33.4900 C.3          1 NAD300   0.0000
    32 O3D        -12.2690   -15.0190    32.8570 O.3          1 NAD300   0.0000
    33 C2D        -14.4770   -15.4770    33.6100 C.3          1 NAD300   0.0000
    34 O2D        -14.4590   -14.0870    33.8990 O.3          1 NAD300   0.0000
    35 C1D        -15.0100   -15.8630    32.2330 C.3          1 NAD300   0.0000
    36 N1N        -16.4710   -15.9250    32.1180 N.ar         1 NAD300   1.0000
    37 C2N        -17.1930   -16.7490    32.9440 C.ar         1 NAD300   0.0000
    38 C3N        -18.5690   -16.8290    32.7770 C.ar         1 NAD300   0.0000
    39 C7N        -19.3980   -17.7270    33.6240 C.2          1 NAD300   0.0000
    40 O7N        -20.7600   -17.5020    33.4870 O.2          1 NAD300   0.0000
    41 N7N        -18.8810   -18.6710    34.4110 N.am         1 NAD300   0.0000
    42 C4N        -19.2120   -16.0930    31.7650 C.ar         1 NAD300   0.0000
    43 C5N        -18.4590   -15.2620    30.9400 C.ar         1 NAD300   0.0000
    44 C6N        -17.0800   -15.2020    31.1210 C.ar         1 NAD300   0.0000
    45 H5B1       -11.2223   -19.7023    38.0037 H            1 NAD300   0.0000
    46 H5B2       -11.4222   -19.2077    36.4603 H            1 NAD300   0.0000
    47 H4B         -9.9422   -20.9447    35.7156 H            1 NAD300   0.0000
    48 H3B        -10.3337   -22.2764    37.9824 H            1 NAD300   0.0000
    49 H5          -8.4437   -23.4794    37.4494 H            1 NAD300   0.0000
    50 H2B         -9.2928   -20.5936    39.2599 H            1 NAD300   0.0000
    51 H7          -8.2457   -22.2654    40.1497 H            1 NAD300   0.0000
    52 H1B         -7.2551   -20.5877    37.2098 H            1 NAD300   0.0000
    53 H8A         -8.8636   -18.0540    39.5782 H            1 NAD300   0.0000
    54 H6A1        -3.3125   -15.5045    39.9492 H            1 NAD300   0.0000
    55 H6A2        -4.9525   -15.4972    40.5062 H            1 NAD300   0.0000
    56 H2A         -2.9910   -19.0097    37.0529 H            1 NAD300   0.0000
    57 H5D1       -13.2847   -19.3519    32.8781 H            1 NAD300   0.0000
    58 H5D2       -12.3160   -18.6228    33.9720 H            1 NAD300   0.0000
    59 H4D        -12.4943   -17.2801    31.9420 H            1 NAD300   0.0000
    60 H3D        -12.7025   -16.2330    34.3912 H            1 NAD300   0.0000
    61 H17        -11.3550   -15.3891    32.6908 H            1 NAD300   0.0000
    62 H2D        -14.9725   -15.9721    34.3237 H            1 NAD300   0.0000
    63 H19        -15.3975   -13.7503    33.9758 H            1 NAD300   0.0000
    64 H1D        -14.6456   -15.2360    31.5444 H            1 NAD300   0.0000
    65 H2N        -16.7355   -17.2833    33.6548 H            1 NAD300   0.0000
    66 H7N1       -19.4839   -19.2488    34.9611 H            1 NAD300   0.0000
    67 H7N2       -17.8903   -18.8012    34.4511 H            1 NAD300   0.0000
    68 H4N        -20.2014   -16.1661    31.6393 H            1 NAD300   0.0000
    69 H5N        -18.9019   -14.7166    30.2284 H            1 NAD300   0.0000
    70 H6N        -16.5267   -14.6264    30.5188 H            1 NAD300   0.0000
@<TRIPOS>BOND
     1    1    2      ar
     2    1    3      ar
     3    1    4       1
     4    1   23       1
     5    4    5       1
     6    5    6       1
     7    6    7       1
     8    6    8       1
     9    7   12       1
    10    8    9       1
    11    8   10       1
    12   10   11       1
    13   10   12       1
    14   12   13       1
    15   13   14       1
    16   13   22       1
    17   14   15       2
    18   15   16       1
    19   16   17      ar
    20   16   22      ar
    21   17   18       1
    22   17   19      ar
    23   19   20      ar
    24   20   21      ar
    25   21   22      ar
    26   23   24       1
    27   24   25      ar
    28   24   26      ar
    29   24   27       1
    30   27   28       1
    31   28   29       1
    32   29   30       1
    33   29   31       1
    34   30   35       1
    35   31   32       1
    36   31   33       1
    37   33   34       1
    38   33   35       1
    39   35   36       1
    40   36   37      ar
    41   36   44      ar
    42   37   38      ar
    43   38   39       1
    44   38   42      ar
    45   39   40       2
    46   39   41      am
    47   42   43      ar
    48   43   44      ar
    49   44   70       1
    50    5   45       1
    51    5   46       1
    52    6   47       1
    53    8   48       1
    54    9   49       1
    55   10   50       1
    56   11   51       1
    57   12   52       1
    58   14   53       1
    59   18   54       1
    60   18   55       1
    61   20   56       1
    62   43   69       1
    63   28   57       1
    64   28   58       1
    65   29   59       1
    66   31   60       1
    67   32   61       1
    68   33   62       1
    69   34   63       1
    70   35   64       1
    71   37   65       1
    72   41   66       1
    73   41   67       1
    74   42   68       1
@<TRIPOS>SUBSTRUCTURE
     1 NAD300      1 GROUP             4 C     NAD     0 **** NAD C 300
