@<TRIPOS>MOLECULE
./coach420/2baw/ligand.pdb
 56 53 0 0 0
SMALL
GASTEIGER

@<TRIPOS>ATOM
      1  C5        -9.0080  -19.1410   21.4140 C.3   920  B7G920      0.1835
      2  O5        -8.3860  -18.1690   20.5700 O.3   920  B7G920     -0.3256
      3  C1        -9.0120  -16.8920   20.4860 C.3   920  B7G920      0.2695
      4  C2       -10.4790  -17.0310   20.0460 C.3   920  B7G920      0.2406
      5  C3       -11.2390  -18.0640   20.8930 C.3   920  B7G920      0.2198
      6  C4       -10.4570  -19.3750   20.9880 C.3   920  B7G920      0.2144
      7  C6        -8.2250  -20.4450   21.2870 C.3   920  B7G920      0.2142
      8  O1        -8.2450  -16.1830   19.5170 O.3   920  B7G920     -0.3286
      9  C7        -7.8120  -14.9070   19.9610 C.3   920  B7G920      0.1449
     10  C8        -6.3380  -14.9340   20.3280 C.3   920  B7G920      0.0322
     11  C9        -5.4940  -14.1530   19.3270 C.3   920  B7G920      0.0026
     12  C10       -4.4070  -13.3840   20.0630 C.3   920  B7G920      0.0001
     13  C11       -3.0410  -13.5760   19.4170 C.3   920  B7G920      0.0000
     14  C12       -2.1280  -14.4630   20.2560 C.3   920  B7G920      0.0000
     15  O2       -11.1520  -15.7630   20.1250 O.3   920  B7G920     -0.2149
     16  O3       -12.5350  -18.3430   20.3310 O.3   920  B7G920     -0.2174
     17  O4       -11.0840  -20.2490   21.9280 O.3   920  B7G920     -0.2176
     18  O6        -6.8650  -20.2260   21.6550 O.3   920  B7G920     -0.2176
     19  C13       -0.9820  -14.9720   19.3990 C.3   920  B7G920      0.0000
     20  O5        -9.0620  -21.3760   26.2220 O.3   921  B7G921     -0.1869
     21  C1        -9.8160  -22.5890   26.1020 C.3   921  B7G921      0.3023
     22  C2       -11.3060  -22.2450   26.1770 C.3   921  B7G921      0.2434
     23  C3       -11.6500  -21.2260   25.0880 C.3   921  B7G921      0.2200
     24  C4       -10.7500  -20.0000   25.2290 C.3   921  B7G921      0.2176
     25  C6        -8.2500  -19.3250   25.1990 C.3   921  B7G921      0.2175
     26  O1        -9.4360  -23.5020   27.1410 O.3   921  B7G921     -0.3266
     27  C7        -8.3180  -24.3010   26.7520 C.3   921  B7G921      0.1450
     28  C8        -7.6460  -24.9060   27.9760 C.3   921  B7G921      0.0322
     29  C9        -6.3680  -25.6230   27.5590 C.3   921  B7G921      0.0026
     30  C10       -5.1370  -24.9470   28.1480 C.3   921  B7G921      0.0001
     31  C11       -4.0080  -25.9470   28.3670 C.3   921  B7G921      0.0000
     32  C12       -2.6510  -25.3460   28.0020 C.3   921  B7G921      0.0000
     33  O2       -12.1190  -23.4150   26.0260 O.3   921  B7G921     -0.2148
     34  O3       -13.0340  -20.8580   25.1570 O.3   921  B7G921     -0.2174
     35  O4       -11.0230  -19.0820   24.1750 O.3   921  B7G921     -0.2175
     36  O6        -8.7300  -18.1750   25.9090 O.3   921  B7G921     -0.2175
     37  C13       -1.9280  -24.7570   29.2070 C.3   921  B7G921      0.0000
     38  C1        -9.8100  -35.0160   34.0420 C.2   201  VCA201      0.2074
     39  O1       -10.6390  -35.4010   33.1970 O.2   201  VCA201     -0.2883
     40  C2       -10.1630  -35.2880   35.5190 C.3   201  VCA201      0.0722
     41  C3        -9.5460  -36.5830   36.0450 C.3   201  VCA201      0.0082
     42  C4       -10.1900  -37.8050   35.4010 C.3   201  VCA201      0.0005
     43  C5        -9.5800  -39.1030   35.9300 C.3   201  VCA201      0.0000
     44  C6        -8.5180  -39.6360   34.9630 C.3   201  VCA201      0.0000
     45  C7        -7.8830  -40.9360   35.4640 C.3   201  VCA201      0.0000
     46  C8        -6.8330  -40.6560   36.5440 C.3   201  VCA201      0.0003
     47  C9        -5.4090  -40.8690   36.0150 C.3   201  VCA201      0.0047
     48  C10       -4.3920  -40.2440   36.9770 C.3   201  VCA201      0.0257
     49  C11       -3.7730  -41.2240   37.7460 C.2   201  VCA201     -0.0307
     50  C12       -3.7800  -41.2830   39.1470 C.2   201  VCA201     -0.0307
     51  C13       -4.4100  -40.3730   39.9970 C.3   201  VCA201      0.0257
     52  C14       -5.2910  -41.1100   41.0190 C.3   201  VCA201      0.0047
     53  C15       -4.5170  -41.3810   42.3190 C.3   201  VCA201      0.0003
     54  C16       -5.4610  -41.7750   43.4600 C.3   201  VCA201      0.0000
     55  C17       -4.6820  -41.9450   44.7640 C.3   201  VCA201      0.0000
     56  C18       -5.5870  -41.7450   45.9700 C.3   201  VCA201      0.0000
@<TRIPOS>BOND
     1     1     2    1
     2     1     6    1
     3     1     7    1
     4     2     3    1
     5     3     8    1
     6     3     4    1
     7     4    15    1
     8     4     5    1
     9     5    16    1
    10     5     6    1
    11     6    17    1
    12     7    18    1
    13     8     9    1
    14     9    10    1
    15    10    11    1
    16    11    12    1
    17    12    13    1
    18    13    14    1
    19    14    19    1
    20    20    21    1
    21    21    22    1
    22    21    26    1
    23    22    23    1
    24    22    33    1
    25    23    34    1
    26    23    24    1
    27    24    35    1
    28    25    36    1
    29    26    27    1
    30    27    28    1
    31    28    29    1
    32    29    30    1
    33    30    31    1
    34    31    32    1
    35    32    37    1
    36    38    39    2
    37    38    40    1
    38    40    41    1
    39    41    42    1
    40    42    43    1
    41    43    44    1
    42    44    45    1
    43    45    46    1
    44    46    47    1
    45    47    48    1
    46    48    49    1
    47    49    50    2
    48    50    51    1
    49    51    52    1
    50    52    53    1
    51    53    54    1
    52    54    55    1
    53    55    56    1
