@<TRIPOS>MOLECULE
1gwn_GTP_1_ligand
   44    46     1     0     0
SMALL
NO_CHARGES


@<TRIPOS>ATOM
     1 PG          36.3990    41.9320    60.2830 P.3          1 GTP1201   0.0000
     2 O1G         36.3600    40.6420    61.0560 O.co2        1 GTP1201   0.0000
     3 O2G         37.2920    42.8860    60.9880 O.co2        1 GTP1201  -1.0000
     4 O3G         35.0980    42.3890    59.7290 O.co2        1 GTP1201  -1.0000
     5 O3B         37.2560    41.5580    58.9580 O.3          1 GTP1201   0.0000
     6 PB          37.8490    42.4220    57.7390 P.3          1 GTP1201   0.0000
     7 O1B         36.8210    42.5320    56.6390 O.co2        1 GTP1201   0.0000
     8 O2B         38.5810    43.6810    58.1630 O.co2        1 GTP1201  -1.0000
     9 O3A         39.0310    41.4510    57.2170 O.3          1 GTP1201   0.0000
    10 PA          40.5720    41.8290    56.9730 P.3          1 GTP1201   0.0000
    11 O1A         40.7470    43.0600    56.1660 O.co2        1 GTP1201   0.0000
    12 O2A         41.1900    41.7720    58.3310 O.co2        1 GTP1201  -1.0000
    13 O5'         41.1430    40.5990    56.1080 O.3          1 GTP1201   0.0000
    14 C5'         40.7170    39.2950    56.5290 C.3          1 GTP1201   0.0000
    15 C4'         41.6660    38.1940    56.0950 C.3          1 GTP1201   0.0000
    16 O4'         41.7260    38.1260    54.6640 O.3          1 GTP1201   0.0000
    17 C3'         43.0670    38.5020    56.5910 C.3          1 GTP1201   0.0000
    18 O3'         43.7540    37.2830    56.7990 O.3          1 GTP1201   0.0000
    19 C2'         43.7430    39.1840    55.4510 C.3          1 GTP1201   0.0000
    20 O2'         45.1690    38.9860    55.4910 O.3          1 GTP1201   0.0000
    21 C1'         43.0480    38.5200    54.2640 C.3          1 GTP1201   0.0000
    22 N9          43.0290    39.4720    53.1590 N.pl3        1 GTP1201   0.0000
    23 C8          42.7050    40.7400    53.2300 C.2          1 GTP1201   0.0000
    24 N7          42.7730    41.3560    52.0150 N.2          1 GTP1201   0.0000
    25 C5          43.2050    40.4400    51.1910 C.2          1 GTP1201   0.0000
    26 C6          43.5260    40.4600    49.7810 C.2          1 GTP1201   0.0000
    27 O6          43.4350    41.5270    49.1030 O.2          1 GTP1201   0.0000
    28 N1          43.9410    39.2860    49.3160 N.pl3        1 GTP1201   0.0000
    29 C2          44.0530    38.1600    50.0220 C.2          1 GTP1201   0.0000
    30 N2          44.4540    37.0700    49.3350 N.pl3        1 GTP1201   0.0000
    31 N3          43.7850    38.0850    51.3170 N.2          1 GTP1201   0.0000
    32 C4          43.3700    39.1860    51.9230 C.2          1 GTP1201   0.0000
    33 H5'1        39.8155    39.1120    56.1368 H            1 GTP1201   0.0000
    34 H5'2        40.6542    39.2868    57.5270 H            1 GTP1201   0.0000
    35 H4'         41.3600    37.3165    56.4643 H            1 GTP1201   0.0000
    36 H3'         43.0561    39.0704    57.4137 H            1 GTP1201   0.0000
    37 H5          44.5662    37.2545    56.2163 H            1 GTP1201   0.0000
    38 H2'         43.5337    40.1617    55.4657 H            1 GTP1201   0.0000
    39 H7          45.5334    39.3582    56.3446 H            1 GTP1201   0.0000
    40 H1'         43.5651    37.7088    53.9911 H            1 GTP1201   0.0000
    41 H9          42.4390    41.2019    54.0761 H            1 GTP1201   0.0000
    42 H10         44.1921    39.2431    48.3490 H            1 GTP1201   0.0000
    43 H11         44.5583    36.1933    49.8047 H            1 GTP1201   0.0000
    44 H12         44.6469    37.1389    48.3562 H            1 GTP1201   0.0000
@<TRIPOS>BOND
     1    1    2      ar
     2    1    3      ar
     3    1    4      ar
     4    1    5       1
     5    5    6       1
     6    6    7      ar
     7    6    8      ar
     8    6    9       1
     9    9   10       1
    10   10   11      ar
    11   10   12      ar
    12   10   13       1
    13   13   14       1
    14   14   15       1
    15   15   16       1
    16   15   17       1
    17   16   21       1
    18   17   18       1
    19   17   19       1
    20   19   20       1
    21   19   21       1
    22   21   22       1
    23   22   23       1
    24   22   32       1
    25   23   24       2
    26   24   25       1
    27   25   26       1
    28   25   32       2
    29   26   27       2
    30   26   28       1
    31   28   29       1
    32   29   30       1
    33   29   31       2
    34   31   32       1
    35   30   44       1
    36   30   43       1
    37   28   42       1
    38   23   41       1
    39   14   33       1
    40   14   34       1
    41   15   35       1
    42   17   36       1
    43   18   37       1
    44   19   38       1
    45   20   39       1
    46   21   40       1
@<TRIPOS>SUBSTRUCTURE
     1 GTP1201     1 GROUP             4 A     GTP     0 **** GTP A1201
