@<TRIPOS>MOLECULE
4iv6_FDA_1_ligand
   84    89     1     0     0
SMALL
NO_CHARGES


@<TRIPOS>ATOM
     1 PA          52.4250    43.5630    29.6550 P.3          1 FDA401   0.0000
     2 O1A         52.5440    44.4990    28.4970 O.co2        1 FDA401   0.0000
     3 O2A         51.2390    43.5570    30.5910 O.co2        1 FDA401  -1.0000
     4 O5B         53.7190    43.7290    30.5780 O.3          1 FDA401   0.0000
     5 C5B         55.0240    43.9910    30.0430 C.3          1 FDA401   0.0000
     6 C4B         56.0340    43.9330    31.1890 C.3          1 FDA401   0.0000
     7 O4B         55.6220    44.8650    32.2020 O.3          1 FDA401   0.0000
     8 C3B         56.0710    42.5700    31.8610 C.3          1 FDA401   0.0000
     9 O3B         57.3580    42.4120    32.4150 O.3          1 FDA401   0.0000
    10 C2B         55.0640    42.7380    32.9920 C.3          1 FDA401   0.0000
    11 O2B         55.2490    41.8330    34.0560 O.3          1 FDA401   0.0000
    12 C1B         55.3270    44.1620    33.3960 C.3          1 FDA401   0.0000
    13 N9A         54.1700    44.7790    34.0200 N.pl3        1 FDA401   0.0000
    14 C8A         53.0340    45.1440    33.4060 C.2          1 FDA401   0.0000
    15 N7A         52.2060    45.7020    34.3040 N.2          1 FDA401   0.0000
    16 C5A         52.8280    45.7010    35.5270 C.ar         1 FDA401   0.0000
    17 C6A         52.4890    46.1090    36.9010 C.ar         1 FDA401   0.0000
    18 N6A         51.2820    46.6770    37.1780 N.pl3        1 FDA401   0.0000
    19 N1A         53.4290    45.9050    37.8580 N.ar         1 FDA401   0.0000
    20 C2A         54.6210    45.3410    37.5890 C.ar         1 FDA401   0.0000
    21 N3A         54.9910    44.9220    36.3530 N.ar         1 FDA401   0.0000
    22 C4A         54.1300    45.0810    35.3210 C.ar         1 FDA401   0.0000
    23 N1          46.6910    34.7710    26.8510 N.2          1 FDA401   0.0000
    24 C2          45.4260    34.3390    26.7190 C.2          1 FDA401   0.0000
    25 O2          44.4770    35.1010    27.0470 O.2          1 FDA401   0.0000
    26 N3          45.1710    33.1060    26.2770 N.pl3        1 FDA401   0.0000
    27 C4          46.1280    32.2510    25.9020 C.2          1 FDA401   0.0000
    28 O4          45.8320    31.1440    25.4850 O.2          1 FDA401   0.0000
    29 C4X         47.5240    32.6310    26.0090 C.2          1 FDA401   0.0000
    30 N5          48.5600    31.8480    25.6610 N.2          1 FDA401   0.0000
    31 C5X         49.7610    32.4420    25.3870 C.ar         1 FDA401   0.0000
    32 C6          50.7310    31.7920    24.6150 C.ar         1 FDA401   0.0000
    33 C7          51.9500    32.3730    24.3610 C.ar         1 FDA401   0.0000
    34 C7M         52.9700    31.6730    23.5120 C.3          1 FDA401   0.0000
    35 C8          52.2270    33.6350    24.8780 C.ar         1 FDA401   0.0000
    36 C8M         53.5240    34.3370    24.6750 C.3          1 FDA401   0.0000
    37 C9          51.3020    34.2790    25.6520 C.ar         1 FDA401   0.0000
    38 C9A         50.0560    33.7150    25.8970 C.ar         1 FDA401   0.0000
    39 N10         49.0850    34.4300    26.6710 N.pl3        1 FDA401   0.0000
    40 C10         47.7510    33.9980    26.5280 C.2          1 FDA401   0.0000
    41 C1'         49.2500    35.8800    26.8340 C.3          1 FDA401   0.0000
    42 C2'         49.9900    36.0850    28.1380 C.3          1 FDA401   0.0000
    43 O2'         49.1910    35.6940    29.2630 O.3          1 FDA401   0.0000
    44 C3'         50.4480    37.5470    28.1700 C.3          1 FDA401   0.0000
    45 O3'         51.6320    37.6830    27.3420 O.3          1 FDA401   0.0000
    46 C4'         50.7570    37.9800    29.5790 C.3          1 FDA401   0.0000
    47 O4'         49.5130    38.2580    30.1880 O.3          1 FDA401   0.0000
    48 C5'         51.6010    39.2470    29.6690 C.3          1 FDA401   0.0000
    49 O5'         51.0060    40.2260    28.8800 O.3          1 FDA401   0.0000
    50 P           51.7000    41.3510    28.0390 P.3          1 FDA401   0.0000
    51 O1P         52.6270    40.7380    27.0630 O.co2        1 FDA401   0.0000
    52 O2P         50.5450    42.1350    27.5430 O.co2        1 FDA401  -1.0000
    53 O3P         52.5860    42.0670    29.1710 O.3          1 FDA401   0.0000
    54 H5B1        55.0412    44.8983    29.6229 H            1 FDA401   0.0000
    55 H5B2        55.2524    43.3012    29.3560 H            1 FDA401   0.0000
    56 H4B         56.9450    44.1734    30.8539 H            1 FDA401   0.0000
    57 H3B         55.8276    41.8274    31.2371 H            1 FDA401   0.0000
    58 H5          57.9611    41.9858    31.7408 H            1 FDA401   0.0000
    59 H2B         54.1344    42.6537    32.6333 H            1 FDA401   0.0000
    60 H7          56.0281    41.2387    33.8565 H            1 FDA401   0.0000
    61 H1B         56.1101    44.2010    34.0167 H            1 FDA401   0.0000
    62 H8A         52.8355    45.0201    32.4338 H            1 FDA401   0.0000
    63 H6A1        51.0612    46.9506    38.1142 H            1 FDA401   0.0000
    64 H6A2        50.6169    46.8203    36.4452 H            1 FDA401   0.0000
    65 H2A         55.2693    45.2244    38.3414 H            1 FDA401   0.0000
    66 H13         44.2182    32.8071    26.2237 H            1 FDA401   0.0000
    67 H14         50.5327    30.8862    24.2406 H            1 FDA401   0.0000
    68 H7M1        53.7888    32.2422    23.4374 H            1 FDA401   0.0000
    69 H7M2        53.2096    30.7978    23.9323 H            1 FDA401   0.0000
    70 H7M3        52.5914    31.5125    22.6005 H            1 FDA401   0.0000
    71 H8M1        53.4977    35.2251    25.1338 H            1 FDA401   0.0000
    72 H8M2        54.2650    33.7856    25.0583 H            1 FDA401   0.0000
    73 H8M3        53.6805    34.4718    23.6966 H            1 FDA401   0.0000
    74 H21         51.5257    35.1697    26.0479 H            1 FDA401   0.0000
    75 H1'1        48.3564    36.3274    26.8700 H            1 FDA401   0.0000
    76 H1'2        49.7801    36.2549    26.0735 H            1 FDA401   0.0000
    77 H2'         50.8058    35.5068    28.1236 H            1 FDA401   0.0000
    78 H25         49.0571    36.4803    29.8661 H            1 FDA401   0.0000
    79 H3'         49.7214    38.1264    27.8008 H            1 FDA401   0.0000
    80 H27         51.9405    38.6341    27.3551 H            1 FDA401   0.0000
    81 H4'         51.2127    37.2361    30.0678 H            1 FDA401   0.0000
    82 H29         49.6623    38.5519    31.1321 H            1 FDA401   0.0000
    83 H5'1        52.5259    39.0613    29.3371 H            1 FDA401   0.0000
    84 H5'2        51.6437    39.5579    30.6185 H            1 FDA401   0.0000
@<TRIPOS>BOND
     1    1    2      ar
     2    1    3      ar
     3    1    4       1
     4    1   53       1
     5    4    5       1
     6    5    6       1
     7    6    7       1
     8    6    8       1
     9    7   12       1
    10    8    9       1
    11    8   10       1
    12   10   11       1
    13   10   12       1
    14   12   13       1
    15   13   14       1
    16   13   22       1
    17   14   15       2
    18   15   16       1
    19   16   17      ar
    20   16   22      ar
    21   17   18       1
    22   17   19      ar
    23   19   20      ar
    24   20   21      ar
    25   21   22      ar
    26   23   24       1
    27   23   40       2
    28   24   25       2
    29   24   26       1
    30   26   27       1
    31   27   28       2
    32   27   29       1
    33   29   30       2
    34   29   40       1
    35   30   31       1
    36   31   32      ar
    37   31   38      ar
    38   32   33      ar
    39   33   34       1
    40   33   35      ar
    41   35   36       1
    42   35   37      ar
    43   37   38      ar
    44   38   39       1
    45   39   40       1
    46   39   41       1
    47   41   42       1
    48   42   43       1
    49   42   44       1
    50   44   45       1
    51   44   46       1
    52   46   47       1
    53   46   48       1
    54   48   49       1
    55   49   50       1
    56   50   51      ar
    57   50   52      ar
    58   50   53       1
    59   48   84       1
    60    5   54       1
    61    5   55       1
    62    6   56       1
    63    8   57       1
    64    9   58       1
    65   10   59       1
    66   11   60       1
    67   12   61       1
    68   14   62       1
    69   18   63       1
    70   18   64       1
    71   20   65       1
    72   26   66       1
    73   32   67       1
    74   34   68       1
    75   34   69       1
    76   34   70       1
    77   36   71       1
    78   36   72       1
    79   36   73       1
    80   37   74       1
    81   41   75       1
    82   41   76       1
    83   42   77       1
    84   43   78       1
    85   44   79       1
    86   45   80       1
    87   46   81       1
    88   47   82       1
    89   48   83       1
@<TRIPOS>SUBSTRUCTURE
     1 FDA401      1 GROUP             4 A     FDA     0 **** FDA A 401
