@<TRIPOS>MOLECULE
3ptq_NFG_1_ligand
   37    38     1     0     0
SMALL
NO_CHARGES


@<TRIPOS>ATOM
     1 C1         -31.7720    -7.6040   -23.8470 C.3          1 NFG1001   0.0000
     2 O1         -30.8060    -8.5180   -23.3050 O.3          1 NFG1001   0.0000
     3 C2         -32.9870    -7.5070   -22.8950 C.3          1 NFG1001   0.0000
     4 F          -34.1610    -7.3780   -23.5910 F            1 NFG1001   0.0000
     5 C3         -32.8710    -6.3370   -21.9180 C.3          1 NFG1001   0.0000
     6 O3         -33.6680    -6.5360   -20.7390 O.3          1 NFG1001   0.0000
     7 C4         -31.3920    -6.1670   -21.6090 C.3          1 NFG1001   0.0000
     8 O4         -31.1500    -5.3790   -20.4460 O.3          1 NFG1001   0.0000
     9 C5         -30.7870    -5.5530   -22.8650 C.3          1 NFG1001   0.0000
    10 C6         -29.2720    -5.4250   -22.7930 C.3          1 NFG1001   0.0000
    11 O6         -28.6800    -6.7250   -22.8460 O.3          1 NFG1001   0.0000
    12 O5         -31.1540    -6.3190   -24.0310 O.3          1 NFG1001   0.0000
    13 C11        -30.0850    -9.5650   -23.8720 C.ar         1 NFG1001   0.0000
    14 C12        -29.1210   -10.1650   -23.0410 C.ar         1 NFG1001   0.0000
    15 N1         -28.8970    -9.7360   -21.7590 N.2          1 NFG1001   1.0000
    16 O11        -29.5460    -8.8090   -21.2970 O.co2        1 NFG1001   0.0000
    17 O12        -28.0450   -10.2700   -21.0480 O.co2        1 NFG1001  -1.0000
    18 C13        -28.3500   -11.2260   -23.5070 C.ar         1 NFG1001   0.0000
    19 C14        -28.5000   -11.7250   -24.7920 C.ar         1 NFG1001   0.0000
    20 N2         -27.6830   -12.7710   -25.1400 N.2          1 NFG1001   1.0000
    21 O21        -26.8730   -13.2170   -24.3310 O.co2        1 NFG1001   0.0000
    22 O22        -27.7340   -13.2830   -26.2480 O.co2        1 NFG1001  -1.0000
    23 C15        -29.4660   -11.1370   -25.6370 C.ar         1 NFG1001   0.0000
    24 C16        -30.2570   -10.0630   -25.1820 C.ar         1 NFG1001   0.0000
    25 H1         -32.0809    -7.9461   -24.7344 H            1 NFG1001   0.0000
    26 H2         -33.0328    -8.3524   -22.3629 H            1 NFG1001   0.0000
    27 H3         -33.1928    -5.5099   -22.3788 H            1 NFG1001   0.0000
    28 H4         -33.5633    -5.7503   -20.1293 H            1 NFG1001   0.0000
    29 H5         -30.9892    -7.0717   -21.4706 H            1 NFG1001   0.0000
    30 H6         -30.2998    -5.6773   -20.0122 H            1 NFG1001   0.0000
    31 H7         -31.1672    -4.6341   -22.9702 H            1 NFG1001   0.0000
    32 H8         -29.0158    -4.9769   -21.9365 H            1 NFG1001   0.0000
    33 H9         -28.9467    -4.8790   -23.5651 H            1 NFG1001   0.0000
    34 H10        -28.1479    -6.8831   -22.0142 H            1 NFG1001   0.0000
    35 H11        -27.6709   -11.6387   -22.8999 H            1 NFG1001   0.0000
    36 H12        -29.5900   -11.4854   -26.5661 H            1 NFG1001   0.0000
    37 H13        -30.9400    -9.6537   -25.7869 H            1 NFG1001   0.0000
@<TRIPOS>BOND
     1    1    2       1
     2    1    3       1
     3    1   12       1
     4    2   13       1
     5    3    4       1
     6    3    5       1
     7    5    6       1
     8    5    7       1
     9    7    8       1
    10    7    9       1
    11    9   10       1
    12    9   12       1
    13   10   11       1
    14   13   14      ar
    15   13   24      ar
    16   14   15       1
    17   14   18      ar
    18   15   16      ar
    19   15   17      ar
    20   18   19      ar
    21   19   20       1
    22   19   23      ar
    23   20   21      ar
    24   20   22      ar
    25   23   24      ar
    26    1   25       1
    27    3   26       1
    28    5   27       1
    29    6   28       1
    30    7   29       1
    31    8   30       1
    32    9   31       1
    33   10   32       1
    34   10   33       1
    35   11   34       1
    36   18   35       1
    37   23   36       1
    38   24   37       1
@<TRIPOS>SUBSTRUCTURE
     1 NFG1001     1 GROUP             4 A     NFG     0 **** NFG A1001
