@<TRIPOS>MOLECULE
2yqu_FAD_2_ligand
   84    89     1     0     0
SMALL
NO_CHARGES


@<TRIPOS>ATOM
     1 PA          46.2650    15.8420    74.3870 P.3          1 FAD1601   0.0000
     2 O1A         45.3780    15.7280    75.5700 O.co2        1 FAD1601   0.0000
     3 O2A         45.7450    16.8270    73.3320 O.co2        1 FAD1601  -1.0000
     4 O5B         46.4900    14.3840    73.7660 O.3          1 FAD1601   0.0000
     5 C5B         46.7460    13.2950    74.6180 C.3          1 FAD1601   0.0000
     6 C4B         46.1970    12.0590    73.9380 C.3          1 FAD1601   0.0000
     7 O4B         46.7850    10.9270    74.5460 O.3          1 FAD1601   0.0000
     8 C3B         44.6860    11.9140    74.0990 C.3          1 FAD1601   0.0000
     9 O3B         44.0670    11.8450    72.8340 O.3          1 FAD1601   0.0000
    10 C2B         44.5060    10.6170    74.8640 C.3          1 FAD1601   0.0000
    11 O2B         43.4030     9.8750    74.3950 O.3          1 FAD1601   0.0000
    12 C1B         45.8220     9.8990    74.6140 C.3          1 FAD1601   0.0000
    13 N9A         46.2870     8.9660    75.6450 N.pl3        1 FAD1601   0.0000
    14 C8A         46.4980     9.2050    76.9790 C.2          1 FAD1601   0.0000
    15 N7A         46.9880     8.0880    77.5470 N.2          1 FAD1601   0.0000
    16 C5A         47.0930     7.1350    76.5920 C.ar         1 FAD1601   0.0000
    17 C6A         47.5280     5.8130    76.6140 C.ar         1 FAD1601   0.0000
    18 N6A         48.0990     5.2650    77.6840 N.pl3        1 FAD1601   0.0000
    19 N1A         47.5110     5.1140    75.4350 N.ar         1 FAD1601   0.0000
    20 C2A         47.0860     5.6640    74.2510 C.ar         1 FAD1601   0.0000
    21 N3A         46.6650     6.9770    74.2360 N.ar         1 FAD1601   0.0000
    22 C4A         46.6640     7.6800    75.3920 C.ar         1 FAD1601   0.0000
    23 N1          44.9220    25.0340    74.1200 N.2          1 FAD1601   0.0000
    24 C2          45.3270    26.0650    73.3000 C.2          1 FAD1601   0.0000
    25 O2          46.5220    26.2480    73.0470 O.2          1 FAD1601   0.0000
    26 N3          44.3900    26.9060    72.7550 N.pl3        1 FAD1601   0.0000
    27 C4          43.0510    26.7360    73.0270 C.2          1 FAD1601   0.0000
    28 O4          42.2620    27.3840    72.3600 O.2          1 FAD1601   0.0000
    29 C4X         42.6210    25.6950    73.8490 C.2          1 FAD1601   0.0000
    30 N5          41.2750    25.5150    74.1260 N.2          1 FAD1601   0.0000
    31 C5X         40.8850    24.4610    74.9490 C.ar         1 FAD1601   0.0000
    32 C6          39.5270    24.2840    75.2280 C.ar         1 FAD1601   0.0000
    33 C7          39.1140    23.2300    76.0560 C.ar         1 FAD1601   0.0000
    34 C7M         37.6370    23.0080    76.2490 C.3          1 FAD1601   0.0000
    35 C8          40.0550    22.3590    76.5960 C.ar         1 FAD1601   0.0000
    36 C8M         39.6370    21.0500    77.2150 C.3          1 FAD1601   0.0000
    37 C9          41.4110    22.5410    76.3190 C.ar         1 FAD1601   0.0000
    38 C9A         41.8340    23.5970    75.5020 C.ar         1 FAD1601   0.0000
    39 N10         43.1900    23.7950    75.2300 N.pl3        1 FAD1601   0.0000
    40 C10         43.5720    24.8400    74.4020 C.2          1 FAD1601   0.0000
    41 C1'         44.2750    22.9810    75.8870 C.3          1 FAD1601   0.0000
    42 C2'         44.7300    21.9050    74.8970 C.3          1 FAD1601   0.0000
    43 O2'         43.6420    21.0700    74.5310 O.3          1 FAD1601   0.0000
    44 C3'         45.8990    21.0840    75.4310 C.3          1 FAD1601   0.0000
    45 O3'         46.9260    21.9510    75.8740 O.3          1 FAD1601   0.0000
    46 C4'         46.4730    20.1800    74.3460 C.3          1 FAD1601   0.0000
    47 O4'         45.4830    19.3070    73.8590 O.3          1 FAD1601   0.0000
    48 C5'         47.6860    19.4050    74.8740 C.3          1 FAD1601   0.0000
    49 O5'         48.1600    18.5140    73.8890 O.3          1 FAD1601   0.0000
    50 P           48.8710    17.1350    74.3090 P.3          1 FAD1601   0.0000
    51 O1P         49.3680    16.4510    73.0770 O.co2        1 FAD1601   0.0000
    52 O2P         49.8950    17.3540    75.4080 O.co2        1 FAD1601  -1.0000
    53 O3P         47.7200    16.2170    74.9700 O.3          1 FAD1601   0.0000
    54 H5B1        46.2909    13.4333    75.4976 H            1 FAD1601   0.0000
    55 H5B2        47.7305    13.1976    74.7638 H            1 FAD1601   0.0000
    56 H4B         46.4311    12.0781    72.9660 H            1 FAD1601   0.0000
    57 H3B         44.3176    12.6810    74.6244 H            1 FAD1601   0.0000
    58 H5          44.4204    11.0552    72.3326 H            1 FAD1601   0.0000
    59 H2B         44.4002    10.8073    75.8400 H            1 FAD1601   0.0000
    60 H7          43.5378     9.6516    73.4296 H            1 FAD1601   0.0000
    61 H1B         45.7795     9.4260    73.7339 H            1 FAD1601   0.0000
    62 H8A         46.3174    10.0675    77.4517 H            1 FAD1601   0.0000
    63 H6A1        48.3975     4.3109    77.6580 H            1 FAD1601   0.0000
    64 H6A2        48.2295     5.8073    78.5140 H            1 FAD1601   0.0000
    65 H2A         47.0818     5.1203    73.4117 H            1 FAD1601   0.0000
    66 H13         44.6825    27.6499    72.1542 H            1 FAD1601   0.0000
    67 H14         38.8504    24.9083    74.8376 H            1 FAD1601   0.0000
    68 H7M1        37.4940    22.2287    76.8591 H            1 FAD1601   0.0000
    69 H7M2        37.2268    23.8262    76.6517 H            1 FAD1601   0.0000
    70 H7M3        37.2095    22.8217    75.3644 H            1 FAD1601   0.0000
    71 H8M1        40.4461    20.5644    77.5460 H            1 FAD1601   0.0000
    72 H8M2        39.0176    21.2258    77.9801 H            1 FAD1601   0.0000
    73 H8M3        39.1700    20.4913    76.5296 H            1 FAD1601   0.0000
    74 H21         42.0854    21.9127    76.7068 H            1 FAD1601   0.0000
    75 H1'1        43.9198    22.5498    76.7164 H            1 FAD1601   0.0000
    76 H1'2        45.0463    23.5722    76.1228 H            1 FAD1601   0.0000
    77 H2'         45.0431    22.3709    74.0694 H            1 FAD1601   0.0000
    78 H25         43.9816    20.1535    74.3196 H            1 FAD1601   0.0000
    79 H3'         45.5863    20.5231    76.1975 H            1 FAD1601   0.0000
    80 H27         47.4293    21.5171    76.6213 H            1 FAD1601   0.0000
    81 H4'         46.7783    20.7577    73.5890 H            1 FAD1601   0.0000
    82 H29         45.7675    18.3609    74.0136 H            1 FAD1601   0.0000
    83 H5'1        47.4191    18.8874    75.6869 H            1 FAD1601   0.0000
    84 H5'2        48.4118    20.0500    75.1129 H            1 FAD1601   0.0000
@<TRIPOS>BOND
     1    1    2      ar
     2    1    3      ar
     3    1    4       1
     4    1   53       1
     5    4    5       1
     6    5    6       1
     7    6    7       1
     8    6    8       1
     9    7   12       1
    10    8    9       1
    11    8   10       1
    12   10   11       1
    13   10   12       1
    14   12   13       1
    15   13   14       1
    16   13   22       1
    17   14   15       2
    18   15   16       1
    19   16   17      ar
    20   16   22      ar
    21   17   18       1
    22   17   19      ar
    23   19   20      ar
    24   20   21      ar
    25   21   22      ar
    26   23   24       1
    27   23   40       2
    28   24   25       2
    29   24   26       1
    30   26   27       1
    31   27   28       2
    32   27   29       1
    33   29   30       2
    34   29   40       1
    35   30   31       1
    36   31   32      ar
    37   31   38      ar
    38   32   33      ar
    39   33   34       1
    40   33   35      ar
    41   35   36       1
    42   35   37      ar
    43   37   38      ar
    44   38   39       1
    45   39   40       1
    46   39   41       1
    47   41   42       1
    48   42   43       1
    49   42   44       1
    50   44   45       1
    51   44   46       1
    52   46   47       1
    53   46   48       1
    54   48   49       1
    55   49   50       1
    56   50   51      ar
    57   50   52      ar
    58   50   53       1
    59   48   84       1
    60    5   54       1
    61    5   55       1
    62    6   56       1
    63    8   57       1
    64    9   58       1
    65   10   59       1
    66   11   60       1
    67   12   61       1
    68   14   62       1
    69   18   63       1
    70   18   64       1
    71   20   65       1
    72   26   66       1
    73   32   67       1
    74   34   68       1
    75   34   69       1
    76   34   70       1
    77   36   71       1
    78   36   72       1
    79   36   73       1
    80   37   74       1
    81   41   75       1
    82   41   76       1
    83   42   77       1
    84   43   78       1
    85   44   79       1
    86   45   80       1
    87   46   81       1
    88   47   82       1
    89   48   83       1
@<TRIPOS>SUBSTRUCTURE
     1 FAD1601     1 GROUP             4 A     FAD     0 **** FAD A1601
