@<TRIPOS>MOLECULE
2gz8_F3F_1_ligand
   33    35     1     0     0
SMALL
NO_CHARGES


@<TRIPOS>ATOM
     1 CAA        -24.7560   -35.0310     5.5060 C.ar         1 F3F307   0.0000
     2 CAB        -25.2490   -34.4890     6.7000 C.ar         1 F3F307   0.0000
     3 CAC        -25.8940   -35.3120     7.6310 C.ar         1 F3F307   0.0000
     4 CAD        -26.0460   -36.6780     7.3640 C.ar         1 F3F307   0.0000
     5 CAE        -25.5570   -37.2210     6.1650 C.ar         1 F3F307   0.0000
     6 CAF        -24.9120   -36.4010     5.2340 C.ar         1 F3F307   0.0000
     7 CAG        -24.3950   -36.9560     4.0080 C.1          1 F3F307   0.0000
     8 CAH        -23.9760   -37.5160     2.9550 C.1          1 F3F307   0.0000
     9 CAI        -23.3130   -37.9580     1.7540 C.2          1 F3F307   0.0000
    10 OAM        -22.2450   -38.8630     1.8760 O.2          1 F3F307   0.0000
    11 CAJ        -23.4840   -37.6320     0.4720 C.2          1 F3F307   0.0000
    12 CAK        -22.6020   -38.3260    -0.2710 C.2          1 F3F307   0.0000
    13 CAL        -21.8780   -39.0890     0.5440 C.2          1 F3F307   0.0000
    14 CAN        -20.7490   -40.0400     0.1400 C.2          1 F3F307   0.0000
    15 OAY        -20.3180   -40.0490    -1.0160 O.2          1 F3F307   0.0000
    16 SAO        -20.0150   -41.1560     1.3150 S.3          1 F3F307   0.0000
    17 CAP        -20.9140   -42.5960     0.8640 C.2          1 F3F307   0.0000
    18 NAT        -20.5730   -43.8360     1.1650 N.2          1 F3F307   0.0000
    19 CAS        -21.5560   -44.5860     0.6630 C.2          1 F3F307   0.0000
    20 CAU        -21.6240   -46.1000     0.8380 C.3          1 F3F307   0.0000
    21 FAW        -22.3500   -46.7400    -0.0980 F            1 F3F307   0.0000
    22 FAX        -20.3730   -46.5440     0.7750 F            1 F3F307   0.0000
    23 FAV        -22.1450   -46.3600     2.0590 F            1 F3F307   0.0000
    24 NAR        -22.4380   -43.7950     0.0590 N.2          1 F3F307   0.0000
    25 NAQ        -22.0550   -42.6210     0.1760 N.pl3        1 F3F307   0.0000
    26 HAA        -24.2917   -34.4413     4.8452 H            1 F3F307   0.0000
    27 HAB        -25.1401   -33.5128     6.8876 H            1 F3F307   0.0000
    28 HAC        -26.2450   -34.9255     8.4839 H            1 F3F307   0.0000
    29 HAD        -26.5039   -37.2683     8.0288 H            1 F3F307   0.0000
    30 HAE        -25.6703   -38.1965     5.9765 H            1 F3F307   0.0000
    31 HAJ        -24.1561   -36.9800     0.1210 H            1 F3F307   0.0000
    32 HAK        -22.5071   -38.2767    -1.2653 H            1 F3F307   0.0000
    33 HAQ        -22.5282   -41.8191    -0.1887 H            1 F3F307   0.0000
@<TRIPOS>BOND
     1    1    2      ar
     2    1    6      ar
     3    2    3      ar
     4    3    4      ar
     5    4    5      ar
     6    5    6      ar
     7    6    7       1
     8    7    8       3
     9    8    9       1
    10    9   10       1
    11    9   11       2
    12   10   13       1
    13   11   12       1
    14   12   13       2
    15   13   14       1
    16   14   15       2
    17   14   16       1
    18   16   17       1
    19   17   18       2
    20   17   25       1
    21   18   19       1
    22   19   20       1
    23   19   24       2
    24   20   21       1
    25   20   22       1
    26   20   23       1
    27   24   25       1
    28    1   26       1
    29    2   27       1
    30    3   28       1
    31    4   29       1
    32    5   30       1
    33   11   31       1
    34   12   32       1
    35   25   33       1
@<TRIPOS>SUBSTRUCTURE
     1 F3F307      1 GROUP             4 A     F3F     0 **** F3F A 307
