@<TRIPOS>MOLECULE
3eq6_BCO_2_ligand
   91    93     1     0     0
SMALL
NO_CHARGES


@<TRIPOS>ATOM
     1 O9          -9.1110    56.2950   -37.4380 O.co2        1 BCO912   0.0000
     2 P1          -9.4110    55.2420   -36.2900 P.3          1 BCO912   0.0000
     3 O5          -9.5180    53.6290   -37.0290 O.co2        1 BCO912  -1.0000
     4 O6          -8.0820    55.3240   -35.1050 O.co2        1 BCO912  -1.0000
     5 O2         -10.8420    55.4790   -35.6070 O.3          1 BCO912   0.0000
     6 C1         -12.0600    55.3120   -36.3520 C.3          1 BCO912   0.0000
     7 C2         -12.6830    53.9480   -36.1500 C.3          1 BCO912   0.0000
     8 O3         -11.6780    52.9470   -36.1230 O.3          1 BCO912   0.0000
     9 C4         -13.4030    54.0760   -34.8150 C.3          1 BCO912   0.0000
    10 N1         -14.7630    53.4680   -34.7310 N.pl3        1 BCO912   0.0000
    11 C7         -15.7410    53.5820   -35.6520 C.2          1 BCO912   0.0000
    12 N2         -16.8430    52.9240   -35.2330 N.2          1 BCO912   0.0000
    13 C8         -16.5510    52.3980   -34.0350 C.ar         1 BCO912   0.0000
    14 C6         -15.2390    52.7470   -33.7170 C.ar         1 BCO912   0.0000
    15 N3         -14.7010    52.3320   -32.5380 N.ar         1 BCO912   0.0000
    16 C15        -15.4480    51.5850   -31.6930 C.ar         1 BCO912   0.0000
    17 N4         -16.7280    51.2280   -31.9870 N.ar         1 BCO912   0.0000
    18 C12        -17.3100    51.6290   -33.1550 C.ar         1 BCO912   0.0000
    19 N5         -18.5910    51.2960   -33.4920 N.pl3        1 BCO912   0.0000
    20 O1         -13.5630    55.4750   -34.6250 O.3          1 BCO912   0.0000
    21 C3         -13.1150    56.2190   -35.7650 C.3          1 BCO912   0.0000
    22 C5         -14.2730    56.5720   -36.7170 C.3          1 BCO912   0.0000
    23 O4         -13.8340    57.5710   -37.6500 O.3          1 BCO912   0.0000
    24 P2         -14.2890    57.5390   -39.2000 P.3          1 BCO912   0.0000
    25 O12        -15.8850    57.6600   -39.2800 O.co2        1 BCO912   0.0000
    26 O10        -13.4780    58.8170   -40.1200 O.co2        1 BCO912  -1.0000
    27 O7         -13.8520    56.0670   -39.6440 O.3          1 BCO912   0.0000
    28 P3         -13.0490    55.7790   -40.9990 P.3          1 BCO912   0.0000
    29 O14        -12.9860    54.1990   -41.1700 O.co2        1 BCO912   0.0000
    30 O13        -11.4130    56.4920   -40.9570 O.co2        1 BCO912  -1.0000
    31 O8         -14.0970    56.3950   -42.0780 O.3          1 BCO912   0.0000
    32 C11        -13.6390    56.9500   -43.3080 C.3          1 BCO912   0.0000
    33 C9         -14.7950    57.5480   -44.1090 C.3          1 BCO912   0.0000
    34 C13        -15.9580    56.5780   -44.1690 C.3          1 BCO912   0.0000
    35 C14        -14.3030    57.7110   -45.5420 C.3          1 BCO912   0.0000
    36 C10        -15.1530    58.9130   -43.5100 C.3          1 BCO912   0.0000
    37 O11        -15.0730    58.9280   -42.1020 O.3          1 BCO912   0.0000
    38 C16        -16.4920    59.4520   -43.9290 C.2          1 BCO912   0.0000
    39 O15        -17.5770    58.8780   -43.7890 O.2          1 BCO912   0.0000
    40 N6         -16.3550    60.6720   -44.4320 N.am         1 BCO912   0.0000
    41 C17        -17.4630    61.4050   -44.9560 C.3          1 BCO912   0.0000
    42 C18        -18.4690    61.8870   -43.9240 C.3          1 BCO912   0.0000
    43 C19        -19.5340    62.4790   -44.7970 C.2          1 BCO912   0.0000
    44 O16        -19.9840    61.6910   -45.6100 O.2          1 BCO912   0.0000
    45 N7         -19.8580    63.7930   -44.6550 N.am         1 BCO912   0.0000
    46 C20        -20.8600    64.5520   -45.4280 C.3          1 BCO912   0.0000
    47 C21        -21.8050    65.4220   -44.5850 C.3          1 BCO912   0.0000
    48 S1         -23.3810    65.8170   -45.3510 S.3          1 BCO912   0.0000
    49 C22        -22.9910    66.8580   -46.5600 C.2          1 BCO912   0.0000
    50 O17        -21.8000    66.9970   -46.7490 O.2          1 BCO912   0.0000
    51 C23        -24.0730    67.5150   -47.3900 C.3          1 BCO912   0.0000
    52 C24        -24.3060    68.9770   -47.0790 C.3          1 BCO912   0.0000
    53 C25        -25.2370    69.5190   -48.1430 C.3          1 BCO912   0.0000
    54 H1         -11.9185    55.5040   -37.3231 H            1 BCO912   0.0000
    55 H2         -13.3401    53.7575   -36.8794 H            1 BCO912   0.0000
    56 H3         -10.9082    53.2320   -36.6941 H            1 BCO912   0.0000
    57 H4         -12.8259    53.7044   -34.0877 H            1 BCO912   0.0000
    58 H5         -15.6620    54.0794   -36.5159 H            1 BCO912   0.0000
    59 H6         -15.0478    51.2862   -30.8266 H            1 BCO912   0.0000
    60 H7         -19.1449    50.7446   -32.8682 H            1 BCO912   0.0000
    61 H8         -18.9750    51.6036   -34.3626 H            1 BCO912   0.0000
    62 H9         -12.6810    57.0640   -35.4525 H            1 BCO912   0.0000
    63 H10        -15.0443    56.9255   -36.1878 H            1 BCO912   0.0000
    64 H11        -14.5577    55.7526   -37.2146 H            1 BCO912   0.0000
    65 H12        -13.2053    56.2297   -43.8494 H            1 BCO912   0.0000
    66 H13        -12.9712    57.6684   -43.1131 H            1 BCO912   0.0000
    67 H14        -16.7044    56.9846   -44.6959 H            1 BCO912   0.0000
    68 H15        -15.6625    55.7301   -44.6092 H            1 BCO912   0.0000
    69 H16        -16.2745    56.3792   -43.2415 H            1 BCO912   0.0000
    70 H17        -15.0331    58.1016   -46.1027 H            1 BCO912   0.0000
    71 H18        -13.5104    58.3206   -45.5550 H            1 BCO912   0.0000
    72 H19        -14.0427    56.8178   -45.9087 H            1 BCO912   0.0000
    73 H20        -14.4671    59.5603   -43.8426 H            1 BCO912   0.0000
    74 H21        -14.7930    58.0256   -41.7744 H            1 BCO912   0.0000
    75 H22        -15.4473    61.0915   -44.4446 H            1 BCO912   0.0000
    76 H23        -17.9443    60.8156   -45.6049 H            1 BCO912   0.0000
    77 H24        -17.1046    62.2059   -45.4356 H            1 BCO912   0.0000
    78 H25        -18.0694    62.5749   -43.3181 H            1 BCO912   0.0000
    79 H26        -18.8243    61.1281   -43.3782 H            1 BCO912   0.0000
    80 H27        -19.3628    64.2999   -43.9494 H            1 BCO912   0.0000
    81 H28        -21.4155    63.8986   -45.9423 H            1 BCO912   0.0000
    82 H29        -20.3732    65.1497   -46.0650 H            1 BCO912   0.0000
    83 H30        -21.3356    66.2820   -44.3847 H            1 BCO912   0.0000
    84 H31        -21.9907    64.9367   -43.7306 H            1 BCO912   0.0000
    85 H32        -24.9290    67.0225   -47.2326 H            1 BCO912   0.0000
    86 H33        -23.8166    67.4382   -48.3535 H            1 BCO912   0.0000
    87 H34        -23.4383    69.4737   -47.0979 H            1 BCO912   0.0000
    88 H35        -24.7252    69.0725   -46.1761 H            1 BCO912   0.0000
    89 H36        -25.4142    70.4876   -47.9689 H            1 BCO912   0.0000
    90 H37        -24.8124    69.4142   -49.0423 H            1 BCO912   0.0000
    91 H38        -26.0993    69.0131   -48.1206 H            1 BCO912   0.0000
@<TRIPOS>BOND
     1    1    2      ar
     2    2    3      ar
     3    2    4      ar
     4    2    5       1
     5    5    6       1
     6    6    7       1
     7    6   21       1
     8    7    8       1
     9    7    9       1
    10    9   10       1
    11    9   20       1
    12   10   11       1
    13   10   14       1
    14   11   12       2
    15   12   13       1
    16   13   14      ar
    17   13   18      ar
    18   14   15      ar
    19   15   16      ar
    20   16   17      ar
    21   17   18      ar
    22   18   19       1
    23   20   21       1
    24   21   22       1
    25   22   23       1
    26   23   24       1
    27   24   25      ar
    28   24   26      ar
    29   24   27       1
    30   27   28       1
    31   28   29      ar
    32   28   30      ar
    33   28   31       1
    34   31   32       1
    35   32   33       1
    36   33   34       1
    37   33   35       1
    38   33   36       1
    39   36   37       1
    40   36   38       1
    41   38   39       2
    42   38   40      am
    43   40   41       1
    44   41   42       1
    45   42   43       1
    46   43   44       2
    47   43   45      am
    48   45   46       1
    49   46   47       1
    50   47   48       1
    51   48   49       1
    52   49   50       2
    53   49   51       1
    54   51   52       1
    55   52   53       1
    56   53   91       1
    57   53   90       1
    58    6   54       1
    59    7   55       1
    60    8   56       1
    61    9   57       1
    62   11   58       1
    63   16   59       1
    64   19   60       1
    65   19   61       1
    66   21   62       1
    67   22   63       1
    68   22   64       1
    69   53   89       1
    70   52   88       1
    71   32   65       1
    72   32   66       1
    73   34   67       1
    74   34   68       1
    75   34   69       1
    76   35   70       1
    77   35   71       1
    78   35   72       1
    79   36   73       1
    80   37   74       1
    81   40   75       1
    82   41   76       1
    83   41   77       1
    84   42   78       1
    85   42   79       1
    86   45   80       1
    87   46   81       1
    88   46   82       1
    89   47   83       1
    90   47   84       1
    91   51   85       1
    92   51   86       1
    93   52   87       1
@<TRIPOS>SUBSTRUCTURE
     1 BCO912      1 GROUP             4 B     BCO     0 **** BCO B 912
