@<TRIPOS>MOLECULE
2bfq_AR6_1_ligand
   57    60     1     0     0
SMALL
NO_CHARGES


@<TRIPOS>ATOM
     1 N1         -17.0360    22.4650    -3.0910 N.ar         1 AR61193   0.0000
     2 C2         -17.3730    23.6940    -2.5390 C.ar         1 AR61193   0.0000
     3 N3         -17.8700    23.7660    -1.2860 N.ar         1 AR61193   0.0000
     4 C4         -18.0480    22.6270    -0.5560 C.ar         1 AR61193   0.0000
     5 C5         -17.7330    21.3880    -1.0610 C.ar         1 AR61193   0.0000
     6 C6         -17.1930    21.2810    -2.3940 C.ar         1 AR61193   0.0000
     7 N6         -16.8650    20.1390    -2.9290 N.pl3        1 AR61193   0.0000
     8 N7         -18.0330    20.4760    -0.0870 N.2          1 AR61193   0.0000
     9 C8         -18.4960    21.2080     0.9360 C.2          1 AR61193   0.0000
    10 N9         -18.5320    22.5600     0.7100 N.pl3        1 AR61193   0.0000
    11 C1'        -18.9090    23.7480     1.4920 C.3          1 AR61193   0.0000
    12 C2'        -19.8950    23.4750     2.6420 C.3          1 AR61193   0.0000
    13 O2'        -21.2320    23.2180     2.2070 O.3          1 AR61193   0.0000
    14 C3'        -19.6580    24.7330     3.4660 C.3          1 AR61193   0.0000
    15 O3'        -20.5180    25.7920     3.0810 O.3          1 AR61193   0.0000
    16 O4'        -17.7690    24.2400     2.1470 O.3          1 AR61193   0.0000
    17 C4'        -18.1760    25.1190     3.2160 C.3          1 AR61193   0.0000
    18 C5'        -17.2120    24.8410     4.3610 C.3          1 AR61193   0.0000
    19 O5'        -17.6350    23.6340     5.0940 O.3          1 AR61193   0.0000
    20 PA         -16.5640    22.7600     5.7830 P.3          1 AR61193   0.0000
    21 O1A        -15.9130    21.8950     4.7200 O.co2        1 AR61193   0.0000
    22 O2A        -17.2800    21.9220     6.8630 O.co2        1 AR61193  -1.0000
    23 O3A        -15.4700    23.6450     6.4100 O.3          1 AR61193   0.0000
    24 PB         -15.3710    24.4280     7.7770 P.3          1 AR61193   0.0000
    25 O1B        -16.7180    24.9310     8.3250 O.co2        1 AR61193   0.0000
    26 O2B        -14.3440    25.5040     7.6190 O.co2        1 AR61193  -1.0000
    27 O5D        -14.7710    23.3110     8.6910 O.3          1 AR61193   0.0000
    28 C5D        -13.3660    22.9760     8.5760 C.3          1 AR61193   0.0000
    29 O4D        -14.0120    20.6410     8.3610 O.3          1 AR61193   0.0000
    30 O1D        -13.5440    18.3540     8.2770 O.3          1 AR61193   0.0000
    31 C1D        -13.2650    19.6370     7.6740 C.3          1 AR61193   0.0000
    32 O2D        -10.8080    19.0940     7.6950 O.3          1 AR61193   0.0000
    33 C2D        -11.8270    20.0940     7.7990 C.3          1 AR61193   0.0000
    34 O3D        -11.6770    20.0010    10.2650 O.3          1 AR61193   0.0000
    35 C3D        -11.8960    20.8270     9.1270 C.3          1 AR61193   0.0000
    36 C4D        -13.2210    21.5790     9.1540 C.3          1 AR61193   0.0000
    37 H1         -17.2468    24.5302    -3.0727 H            1 AR61193   0.0000
    38 H2         -16.9848    19.2917    -2.4116 H            1 AR61193   0.0000
    39 H3         -16.4935    20.1099    -3.8570 H            1 AR61193   0.0000
    40 H4         -18.7928    20.7990     1.7989 H            1 AR61193   0.0000
    41 H1'        -19.2813    24.4500     0.8849 H            1 AR61193   0.0000
    42 H2'        -19.5699    22.6852     3.1622 H            1 AR61193   0.0000
    43 H7         -21.2729    23.2660     1.2090 H            1 AR61193   0.0000
    44 H3'        -19.7919    24.5284     4.4357 H            1 AR61193   0.0000
    45 H9         -20.0623    26.6672     3.2431 H            1 AR61193   0.0000
    46 H4'        -18.1083    26.0740     2.9272 H            1 AR61193   0.0000
    47 H5'1       -17.2051    25.6222     4.9852 H            1 AR61193   0.0000
    48 H5'2       -16.2928    24.7001     3.9933 H            1 AR61193   0.0000
    49 H5D1       -12.8101    23.6260     9.0942 H            1 AR61193   0.0000
    50 H5D2       -13.0836    22.9863     7.6168 H            1 AR61193   0.0000
    51 H1D        -13.2782    18.3738     9.2408 H            1 AR61193   0.0000
    52 H16        -13.5304    19.6206     6.7100 H            1 AR61193   0.0000
    53 H2D         -9.9792    19.5013     7.3112 H            1 AR61193   0.0000
    54 H18        -11.6605    20.7736     7.0846 H            1 AR61193   0.0000
    55 H3D        -12.1856    20.3661    11.0447 H            1 AR61193   0.0000
    56 H20        -11.1696    21.5142     9.1200 H            1 AR61193   0.0000
    57 H4D        -13.5700    21.5813    10.0911 H            1 AR61193   0.0000
@<TRIPOS>BOND
     1    1    2      ar
     2    1    6      ar
     3    2    3      ar
     4    3    4      ar
     5    4    5      ar
     6    4   10       1
     7    5    6      ar
     8    5    8       1
     9    6    7       1
    10    8    9       2
    11    9   10       1
    12   10   11       1
    13   11   12       1
    14   11   16       1
    15   12   13       1
    16   12   14       1
    17   14   15       1
    18   14   17       1
    19   16   17       1
    20   17   18       1
    21   18   19       1
    22   19   20       1
    23   20   21      ar
    24   20   22      ar
    25   20   23       1
    26   23   24       1
    27   24   25      ar
    28   24   26      ar
    29   24   27       1
    30   27   28       1
    31   28   36       1
    32   29   31       1
    33   29   36       1
    34   30   31       1
    35   31   33       1
    36   32   33       1
    37   33   35       1
    38   34   35       1
    39   35   36       1
    40    2   37       1
    41    7   38       1
    42    7   39       1
    43    9   40       1
    44   11   41       1
    45   12   42       1
    46   13   43       1
    47   14   44       1
    48   15   45       1
    49   17   46       1
    50   18   47       1
    51   18   48       1
    52   36   57       1
    53   35   56       1
    54   28   49       1
    55   28   50       1
    56   30   51       1
    57   31   52       1
    58   32   53       1
    59   33   54       1
    60   34   55       1
@<TRIPOS>SUBSTRUCTURE
     1 AR61193     1 GROUP             4 A     AR6     0 **** AR6 A1193
