@<TRIPOS>MOLECULE
1ahn_FMN_1_ligand
   50    52     1     0     0
SMALL
NO_CHARGES


@<TRIPOS>ATOM
     1 N1          29.3930   -13.8430    -8.4980 N.2          1 FMN177   0.0000
     2 C2          28.9670   -13.9210    -9.7950 C.2          1 FMN177   0.0000
     3 O2          29.6330   -13.5010   -10.7250 O.2          1 FMN177   0.0000
     4 N3          27.7570   -14.5400   -10.0570 N.pl3        1 FMN177   0.0000
     5 C4          27.1260   -15.4290    -9.2010 C.2          1 FMN177   0.0000
     6 O4          26.1380   -16.1350    -9.5710 O.2          1 FMN177   0.0000
     7 C4A         27.6650   -15.4600    -7.8030 C.2          1 FMN177   0.0000
     8 N5          27.0840   -16.2190    -6.8690 N.2          1 FMN177   0.0000
     9 C5A         27.5150   -16.1360    -5.5750 C.ar         1 FMN177   0.0000
    10 C6          27.0560   -17.0800    -4.6220 C.ar         1 FMN177   0.0000
    11 C7          27.6850   -17.2150    -3.3670 C.ar         1 FMN177   0.0000
    12 C7M         27.2110   -18.2720    -2.4310 C.3          1 FMN177   0.0000
    13 C8          28.7580   -16.3090    -3.0300 C.ar         1 FMN177   0.0000
    14 C8M         29.4930   -16.2730    -1.7430 C.3          1 FMN177   0.0000
    15 C9          29.1660   -15.3450    -3.9350 C.ar         1 FMN177   0.0000
    16 C9A         28.5770   -15.2640    -5.2220 C.ar         1 FMN177   0.0000
    17 N10         29.1720   -14.5080    -6.2190 N.pl3        1 FMN177   0.0000
    18 C10         28.7920   -14.5820    -7.5480 C.2          1 FMN177   0.0000
    19 C1'         30.3110   -13.6540    -5.8310 C.3          1 FMN177   0.0000
    20 C2'         29.8910   -12.2240    -5.5420 C.3          1 FMN177   0.0000
    21 O2'         29.0700   -11.4660    -6.4280 O.3          1 FMN177   0.0000
    22 C3'         31.0930   -11.4240    -5.1740 C.3          1 FMN177   0.0000
    23 O3'         31.6080   -11.9380    -3.9510 O.3          1 FMN177   0.0000
    24 C4'         30.8950    -9.9220    -5.0410 C.3          1 FMN177   0.0000
    25 O4'         32.1670    -9.2900    -4.8320 O.3          1 FMN177   0.0000
    26 C5'         30.0210    -9.6150    -3.8290 C.3          1 FMN177   0.0000
    27 O5'         29.7970    -8.1930    -3.7770 O.3          1 FMN177   0.0000
    28 P           29.1190    -7.6180    -2.6610 P.3          1 FMN177   0.0000
    29 O1P         30.1050    -7.6050    -1.5990 O.co2        1 FMN177   0.0000
    30 O2P         27.7960    -8.2650    -2.5070 O.co2        1 FMN177  -1.0000
    31 O3P         29.0420    -6.1750    -3.0940 O.co2        1 FMN177  -1.0000
    32 H1          27.3064   -14.3311   -10.9249 H            1 FMN177   0.0000
    33 H2          26.2724   -17.6604    -4.8436 H            1 FMN177   0.0000
    34 H7M1        27.7524   -18.2404    -1.5908 H            1 FMN177   0.0000
    35 H7M2        26.2476   -18.1164    -2.2128 H            1 FMN177   0.0000
    36 H7M3        27.3148   -19.1689    -2.8609 H            1 FMN177   0.0000
    37 H8M1        30.1847   -15.5515    -1.7742 H            1 FMN177   0.0000
    38 H8M2        28.8519   -16.0882    -0.9981 H            1 FMN177   0.0000
    39 H8M3        29.9382   -17.1550    -1.5886 H            1 FMN177   0.0000
    40 H9          29.8843   -14.6983    -3.6784 H            1 FMN177   0.0000
    41 H1'1        30.9769   -13.6485    -6.5771 H            1 FMN177   0.0000
    42 H1'2        30.7339   -14.0366    -5.0096 H            1 FMN177   0.0000
    43 H2'         29.3602   -12.2838    -4.6966 H            1 FMN177   0.0000
    44 H13         28.1916   -11.9290    -6.5467 H            1 FMN177   0.0000
    45 H3'         31.7845   -11.5759    -5.8802 H            1 FMN177   0.0000
    46 H15         32.5459   -12.2553    -4.0914 H            1 FMN177   0.0000
    47 H4'         30.4673    -9.5604    -5.8694 H            1 FMN177   0.0000
    48 H17         32.7656    -9.4803    -5.6101 H            1 FMN177   0.0000
    49 H5'1        30.4837    -9.9145    -2.9946 H            1 FMN177   0.0000
    50 H5'2        29.1460   -10.0916    -3.9144 H            1 FMN177   0.0000
@<TRIPOS>BOND
     1    1    2       1
     2    1   18       2
     3    2    3       2
     4    2    4       1
     5    4    5       1
     6    5    6       2
     7    5    7       1
     8    7    8       2
     9    7   18       1
    10    8    9       1
    11    9   10      ar
    12    9   16      ar
    13   10   11      ar
    14   11   12       1
    15   11   13      ar
    16   13   14       1
    17   13   15      ar
    18   15   16      ar
    19   16   17       1
    20   17   18       1
    21   17   19       1
    22   19   20       1
    23   20   21       1
    24   20   22       1
    25   22   23       1
    26   22   24       1
    27   24   25       1
    28   24   26       1
    29   26   27       1
    30   27   28       1
    31   28   29      ar
    32   28   30      ar
    33   28   31      ar
    34    4   32       1
    35   10   33       1
    36   12   34       1
    37   12   35       1
    38   12   36       1
    39   14   37       1
    40   14   38       1
    41   14   39       1
    42   15   40       1
    43   19   41       1
    44   19   42       1
    45   20   43       1
    46   21   44       1
    47   22   45       1
    48   23   46       1
    49   24   47       1
    50   25   48       1
    51   26   49       1
    52   26   50       1
@<TRIPOS>SUBSTRUCTURE
     1 FMN177      1 GROUP             4 A     FMN     0 **** FMN A 177
