@<TRIPOS>MOLECULE
2uzh_IPE_1_ligand
   23    22     1     0     0
SMALL
NO_CHARGES


@<TRIPOS>ATOM
     1 C1          50.6800    43.6760    18.0690 C.3          1 IPE1160   0.0000
     2 O1          51.4020    43.4600    16.8440 O.3          1 IPE1160   0.0000
     3 C2          51.5960    44.3670    19.0810 C.3          1 IPE1160   0.0000
     4 C3          50.8070    45.1180    20.1570 C.2          1 IPE1160   0.0000
     5 C4          50.1280    46.4540    19.8410 C.3          1 IPE1160   0.0000
     6 C5          50.7160    44.5890    21.4380 C.2          1 IPE1160   0.0000
     7 PA          51.7110    41.9780    16.2320 P.3          1 IPE1160   0.0000
     8 O1A         53.0990    41.4610    16.9480 O.co2        1 IPE1160   0.0000
     9 O2A         50.5930    41.0440    16.4540 O.co2        1 IPE1160  -1.0000
    10 O3A         52.0420    42.1530    14.6630 O.3          1 IPE1160   0.0000
    11 PB          51.7420    40.9770    13.5700 P.3          1 IPE1160   0.0000
    12 O1B         50.8450    41.7230    12.4460 O.co2        1 IPE1160   0.0000
    13 O2B         50.7840    39.8670    14.2490 O.co2        1 IPE1160  -1.0000
    14 O3B         52.9830    40.3850    13.0080 O.co2        1 IPE1160  -1.0000
    15 H1          50.3776    42.7971    18.4379 H            1 IPE1160   0.0000
    16 H2          49.8839    44.2540    17.8900 H            1 IPE1160   0.0000
    17 H3          52.1788    45.0186    18.5954 H            1 IPE1160   0.0000
    18 H4          52.1664    43.6752    19.5239 H            1 IPE1160   0.0000
    19 H5          49.6636    46.7936    20.6589 H            1 IPE1160   0.0000
    20 H6          50.8171    47.1174    19.5493 H            1 IPE1160   0.0000
    21 H7          49.4600    46.3234    19.1084 H            1 IPE1160   0.0000
    22 H8          50.2019    45.0754    22.1445 H            1 IPE1160   0.0000
    23 H9          51.1646    43.7217    21.6538 H            1 IPE1160   0.0000
@<TRIPOS>BOND
     1    1    2       1
     2    1    3       1
     3    2    7       1
     4    3    4       1
     5    4    5       1
     6    4    6       2
     7    7    8      ar
     8    7    9      ar
     9    7   10       1
    10   10   11       1
    11   11   12      ar
    12   11   13      ar
    13   11   14      ar
    14    1   15       1
    15    1   16       1
    16    3   17       1
    17    3   18       1
    18    5   19       1
    19    5   20       1
    20    5   21       1
    21    6   22       1
    22    6   23       1
@<TRIPOS>SUBSTRUCTURE
     1 IPE1160     1 GROUP             4 B     IPE     0 **** IPE B1160
