@<TRIPOS>MOLECULE
4okk_U5P_2_ligand
   32    33     1     0     0
SMALL
NO_CHARGES


@<TRIPOS>ATOM
     1 N1          15.3070    70.5060    29.1430 N.pl3        1 U5P201   0.0000
     2 C2          14.8780    71.7340    29.6750 C.2          1 U5P201   0.0000
     3 N3          13.5130    71.8130    29.8990 N.pl3        1 U5P201   0.0000
     4 C4          12.5540    70.8380    29.6540 C.2          1 U5P201   0.0000
     5 C5          13.0690    69.6020    29.0990 C.2          1 U5P201   0.0000
     6 C6          14.3900    69.4900    28.8630 C.2          1 U5P201   0.0000
     7 O2          15.6180    72.6810    29.9460 O.2          1 U5P201   0.0000
     8 O4          11.3720    71.0760    29.9090 O.2          1 U5P201   0.0000
     9 C1'         16.7970    70.2850    28.8460 C.3          1 U5P201   0.0000
    10 C2'         17.7560    70.1030    30.0360 C.3          1 U5P201   0.0000
    11 O2'         18.8930    70.9300    29.7920 O.3          1 U5P201   0.0000
    12 C3'         18.0030    68.5780    30.0130 C.3          1 U5P201   0.0000
    13 C4'         17.9950    68.2860    28.5230 C.3          1 U5P201   0.0000
    14 O3'         19.2230    68.1420    30.5920 O.3          1 U5P201   0.0000
    15 O4'         16.9850    69.1760    27.9850 O.3          1 U5P201   0.0000
    16 C5'         17.5780    66.8870    28.1400 C.3          1 U5P201   0.0000
    17 O5'         16.3630    66.5680    28.8180 O.3          1 U5P201   0.0000
    18 P           15.6130    65.1780    28.5460 P.3          1 U5P201   0.0000
    19 O2P         16.6100    64.0070    28.5670 O.co2        1 U5P201   0.0000
    20 O3P         14.7870    65.4880    27.3690 O.co2        1 U5P201  -1.0000
    21 H1          13.1784    72.6738    30.2825 H            1 U5P201   0.0000
    22 H2          12.4515    68.8426    28.8941 H            1 U5P201   0.0000
    23 H3          14.7315    68.6373    28.4677 H            1 U5P201   0.0000
    24 H1'         17.1117    71.0918    28.3460 H            1 U5P201   0.0000
    25 H2'         17.3075    70.3704    30.8888 H            1 U5P201   0.0000
    26 H6          19.7009    70.5190    30.2144 H            1 U5P201   0.0000
    27 H3'         17.2369    68.1076    30.4510 H            1 U5P201   0.0000
    28 H4'         18.8877    68.4993    28.1261 H            1 U5P201   0.0000
    29 H9          19.1026    67.2250    30.9722 H            1 U5P201   0.0000
    30 H5'1        18.2916    66.2388    28.4059 H            1 U5P201   0.0000
    31 H5'2        17.4344    66.8377    27.1516 H            1 U5P201   0.0000
    32 H12         14.9841    65.0352    29.3103 H            1 U5P201   0.0000
@<TRIPOS>BOND
     1    1    2       1
     2    1    6       1
     3    1    9       1
     4    2    3       1
     5    2    7       2
     6    3    4       1
     7    4    5       1
     8    4    8       2
     9    5    6       2
    10    9   10       1
    11    9   15       1
    12   10   11       1
    13   10   12       1
    14   12   13       1
    15   12   14       1
    16   13   15       1
    17   13   16       1
    18   16   17       1
    19   17   18       1
    20   18   19      ar
    21   18   20      ar
    22    3   21       1
    23    5   22       1
    24    6   23       1
    25    9   24       1
    26   10   25       1
    27   11   26       1
    28   12   27       1
    29   13   28       1
    30   14   29       1
    31   16   30       1
    32   16   31       1
    33   18   32       1
@<TRIPOS>SUBSTRUCTURE
     1 U5P201      1 GROUP             4 B     U5P     0 **** U5P B 201
