@<TRIPOS>MOLECULE
3a7r_LAQ_1_ligand
   59    62     1     0     0
SMALL
NO_CHARGES


@<TRIPOS>ATOM
     1 O2P        -17.2870   -40.2820     1.4650 O.co2        1 LAQ401   0.0000
     2 P          -17.8620   -39.1250     2.2000 P.3          1 LAQ401   0.0000
     3 O1P        -19.1630   -38.5940     1.7710 O.co2        1 LAQ401  -1.0000
     4 O3P        -17.9120   -39.6380     3.7460 O.3          1 LAQ401   0.0000
     5 C10        -18.4190   -38.8080     4.7000 C.2          1 LAQ401   0.0000
     6 C11        -18.6310   -39.5200     6.0490 C.3          1 LAQ401   0.0000
     7 C12        -19.1830   -38.6270     7.1710 C.3          1 LAQ401   0.0000
     8 C13        -19.1220   -39.4100     8.5100 C.3          1 LAQ401   0.0000
     9 C14        -19.5620   -38.5370     9.6950 C.3          1 LAQ401   0.0000
    10 C15        -19.3380   -39.2500    11.0530 C.3          1 LAQ401   0.0000
    11 S15        -17.5860   -39.7400    11.3580 S.3          1 LAQ401   0.0000
    12 S17        -18.0310   -40.1610    13.3490 S.3          1 LAQ401   0.0000
    13 C17        -19.4050   -38.9560    13.5710 C.3          1 LAQ401   0.0000
    14 C16        -19.5850   -38.2360    12.2010 C.3          1 LAQ401   0.0000
    15 O10        -18.5360   -37.5900     4.5770 O.2          1 LAQ401   0.0000
    16 O5'        -16.7810   -37.9410     2.2210 O.3          1 LAQ401   0.0000
    17 C5'        -15.3520   -38.1760     2.3570 C.3          1 LAQ401   0.0000
    18 C4'        -14.6100   -36.9070     1.9960 C.3          1 LAQ401   0.0000
    19 C3'        -13.1050   -37.0180     2.1770 C.3          1 LAQ401   0.0000
    20 O3'        -12.5240   -37.7090     1.0590 O.3          1 LAQ401   0.0000
    21 C2'        -12.7370   -35.5340     2.2070 C.3          1 LAQ401   0.0000
    22 O2'        -12.8980   -34.9690     0.9000 O.3          1 LAQ401   0.0000
    23 C1'        -13.8730   -34.9630     3.0750 C.3          1 LAQ401   0.0000
    24 O4'        -14.9830   -35.8530     2.9170 O.3          1 LAQ401   0.0000
    25 N9         -13.5760   -34.9560     4.5140 N.pl3        1 LAQ401   0.0000
    26 C8         -12.6030   -35.6450     5.1590 C.2          1 LAQ401   0.0000
    27 N7         -12.6860   -35.3860     6.4730 N.2          1 LAQ401   0.0000
    28 C5         -13.7450   -34.5760     6.6610 C.ar         1 LAQ401   0.0000
    29 C6         -14.3960   -34.0940     7.7860 C.ar         1 LAQ401   0.0000
    30 N6         -13.8950   -34.3090     9.0180 N.pl3        1 LAQ401   0.0000
    31 N1         -15.4710   -33.3020     7.6150 N.ar         1 LAQ401   0.0000
    32 C2         -15.9900   -33.0710     6.4070 C.ar         1 LAQ401   0.0000
    33 N3         -15.4210   -33.5580     5.3130 N.ar         1 LAQ401   0.0000
    34 C4         -14.2900   -34.2860     5.4140 C.ar         1 LAQ401   0.0000
    35 H1         -17.7503   -39.8868     6.3486 H            1 LAQ401   0.0000
    36 H2         -19.2741   -40.2723     5.9057 H            1 LAQ401   0.0000
    37 H3         -20.1308   -38.3806     6.9687 H            1 LAQ401   0.0000
    38 H4         -18.6305   -37.7965     7.2419 H            1 LAQ401   0.0000
    39 H5         -18.1829   -39.7171     8.6640 H            1 LAQ401   0.0000
    40 H6         -19.7267   -40.2041     8.4496 H            1 LAQ401   0.0000
    41 H7         -20.5345   -38.3258     9.5973 H            1 LAQ401   0.0000
    42 H8         -19.0338   -37.6879     9.6847 H            1 LAQ401   0.0000
    43 H9         -19.9459   -40.0390    11.1420 H            1 LAQ401   0.0000
    44 H10        -19.1717   -38.2928    14.2822 H            1 LAQ401   0.0000
    45 H11        -20.2464   -39.4337    13.8237 H            1 LAQ401   0.0000
    46 H12        -20.5149   -37.8745    12.1332 H            1 LAQ401   0.0000
    47 H13        -18.9292   -37.4844    12.1298 H            1 LAQ401   0.0000
    48 H5'1       -15.0732   -38.9142     1.7427 H            1 LAQ401   0.0000
    49 H5'2       -15.1420   -38.4307     3.3010 H            1 LAQ401   0.0000
    50 H4'        -14.8253   -36.6369     1.0576 H            1 LAQ401   0.0000
    51 H3'        -12.8752   -37.4667     3.0406 H            1 LAQ401   0.0000
    52 H18        -11.5918   -37.3787     0.9109 H            1 LAQ401   0.0000
    53 H2'        -11.8303   -35.3662     2.5940 H            1 LAQ401   0.0000
    54 H20        -12.3005   -35.4454     0.2550 H            1 LAQ401   0.0000
    55 H1'        -14.1178   -34.0439     2.7662 H            1 LAQ401   0.0000
    56 H22        -11.9328   -36.2479     4.7262 H            1 LAQ401   0.0000
    57 H23        -14.3745   -33.9559     9.8214 H            1 LAQ401   0.0000
    58 H24        -13.0437   -34.8217     9.1291 H            1 LAQ401   0.0000
    59 H25        -16.8216   -32.5216     6.3259 H            1 LAQ401   0.0000
@<TRIPOS>BOND
     1    1    2      ar
     2    2    3      ar
     3    2    4       1
     4    2   16       1
     5    4    5       1
     6    5    6       1
     7    5   15       2
     8    6    7       1
     9    7    8       1
    10    8    9       1
    11    9   10       1
    12   10   11       1
    13   10   14       1
    14   11   12       1
    15   12   13       1
    16   13   14       1
    17   16   17       1
    18   17   18       1
    19   18   19       1
    20   18   24       1
    21   19   20       1
    22   19   21       1
    23   21   22       1
    24   21   23       1
    25   23   24       1
    26   23   25       1
    27   25   26       1
    28   25   34       1
    29   26   27       2
    30   27   28       1
    31   28   29      ar
    32   28   34      ar
    33   29   30       1
    34   29   31      ar
    35   31   32      ar
    36   32   33      ar
    37   33   34      ar
    38   32   59       1
    39    6   35       1
    40    6   36       1
    41    7   37       1
    42    7   38       1
    43    8   39       1
    44    8   40       1
    45    9   41       1
    46    9   42       1
    47   10   43       1
    48   13   44       1
    49   13   45       1
    50   14   46       1
    51   14   47       1
    52   17   48       1
    53   17   49       1
    54   18   50       1
    55   19   51       1
    56   20   52       1
    57   21   53       1
    58   22   54       1
    59   23   55       1
    60   26   56       1
    61   30   57       1
    62   30   58       1
@<TRIPOS>SUBSTRUCTURE
     1 LAQ401      1 GROUP             4 A     LAQ     0 **** LAQ A 401
