@<TRIPOS>MOLECULE
4bak_M67_1_ligand
   74    76     1     0     0
SMALL
NO_CHARGES


@<TRIPOS>ATOM
     1 C1          12.2020   -14.9350    19.4280 C.3          1 M671287   0.0000
     2 C2          12.0870   -15.8450    20.6530 C.3          1 M671287   0.0000
     3 C3          13.0710   -17.0160    20.5520 C.3          1 M671287   0.0000
     4 N4          14.4570   -16.5260    20.6160 N.am         1 M671287   0.0000
     5 C5          15.0830   -16.2070    21.7670 C.2          1 M671287   0.0000
     6 O6          14.5200   -16.3220    22.8490 O.2          1 M671287   0.0000
     7 C7          16.5080   -15.7250    21.6520 C.3          1 M671287   0.0000
     8 N8          17.0910   -15.4080    22.9770 N.4          1 M671287   1.0000
     9 C9          18.3430   -14.6140    22.9310 C.3          1 M671287   0.0000
    10 C11         18.8730   -14.3340    24.3520 C.3          1 M671287   0.0000
    11 C12         19.1140   -15.6620    25.0910 C.3          1 M671287   0.0000
    12 C13         19.6460   -15.3870    26.5060 C.3          1 M671287   0.0000
    13 C14         20.9690   -14.6080    26.4450 C.3          1 M671287   0.0000
    14 C15         20.7810   -13.2760    25.7050 C.3          1 M671287   0.0000
    15 C16         20.1910   -13.5270    24.3030 C.3          1 M671287   0.0000
    16 C17         18.0160   -13.3180    22.2410 C.2          1 M671287   0.0000
    17 O18         16.9410   -12.7670    22.4860 O.2          1 M671287   0.0000
    18 N19         18.8320   -12.7660    21.3190 N.am         1 M671287   0.0000
    19 C20         20.1090   -13.0610    20.6390 C.3          1 M671287   0.0000
    20 C21         19.7980   -12.0240    19.5530 C.3          1 M671287   0.0000
    21 C22         18.6350   -11.5930    20.4600 C.3          1 M671287   0.0000
    22 C24         17.2470   -11.7400    19.8720 C.2          1 M671287   0.0000
    23 O25         16.9370   -12.8030    19.3720 O.2          1 M671287   0.0000
    24 N26         16.3190   -10.7780    20.0260 N.am         1 M671287   0.0000
    25 C27         14.9780   -11.0060    19.4760 C.3          1 M671287   0.0000
    26 C28         13.9980   -10.9420    20.6110 C.ar         1 M671287   0.0000
    27 C29         13.7170   -12.0860    21.3400 C.ar         1 M671287   0.0000
    28 C30         12.8140   -12.0210    22.3880 C.ar         1 M671287   0.0000
    29 C31         12.2070   -10.7950    22.7170 C.ar         1 M671287   0.0000
    30 C32         12.4930    -9.6410    21.9700 C.ar         1 M671287   0.0000
    31 C33         13.4110    -9.7240    20.9350 C.ar         1 M671287   0.0000
    32 C34         11.2070   -10.7410    23.8140 C.cat        1 M671287   0.0000
    33 N35         10.5160   -11.8100    24.1380 N.pl3        1 M671287   1.0000
    34 N36         10.9460    -9.5540    24.4550 N.pl3        1 M671287   0.0000
    35 H1          11.5534   -14.1786    19.5126 H            1 M671287   0.0000
    36 H2          13.1318   -14.5717    19.3687 H            1 M671287   0.0000
    37 H3          11.9960   -15.4600    18.6022 H            1 M671287   0.0000
    38 H4          11.1551   -16.2032    20.7096 H            1 M671287   0.0000
    39 H5          12.2909   -15.3149    21.4761 H            1 M671287   0.0000
    40 H6          12.9292   -17.4920    19.6841 H            1 M671287   0.0000
    41 H7          12.9096   -17.6487    21.3094 H            1 M671287   0.0000
    42 H8          14.9623   -16.4240    19.7591 H            1 M671287   0.0000
    43 H9          16.5263   -14.9015    21.0850 H            1 M671287   0.0000
    44 H10         17.0574   -16.4398    21.2194 H            1 M671287   0.0000
    45 H11         17.2860   -16.2697    23.4454 H            1 M671287   0.0000
    46 H12         19.0353   -15.1088    22.4058 H            1 M671287   0.0000
    47 H13         18.1886   -13.8048    24.8536 H            1 M671287   0.0000
    48 H14         19.7838   -16.2056    24.5852 H            1 M671287   0.0000
    49 H15         18.2533   -16.1673    25.1532 H            1 M671287   0.0000
    50 H16         19.7984   -16.2572    26.9746 H            1 M671287   0.0000
    51 H17         18.9713   -14.8496    27.0120 H            1 M671287   0.0000
    52 H18         21.6516   -15.1576    25.9633 H            1 M671287   0.0000
    53 H19         21.2851   -14.4246    27.3758 H            1 M671287   0.0000
    54 H20         21.6665   -12.8202    25.6144 H            1 M671287   0.0000
    55 H21         20.1579   -12.6931    26.2265 H            1 M671287   0.0000
    56 H22         20.0110   -12.6447    23.8680 H            1 M671287   0.0000
    57 H23         20.8590   -14.0362    23.7603 H            1 M671287   0.0000
    58 H24         20.1785   -13.9979    20.2964 H            1 M671287   0.0000
    59 H25         20.9182   -12.8450    21.1854 H            1 M671287   0.0000
    60 H26         19.5267   -12.4051    18.6692 H            1 M671287   0.0000
    61 H27         20.5057   -11.3312    19.4142 H            1 M671287   0.0000
    62 H28         18.7868   -10.7210    20.9253 H            1 M671287   0.0000
    63 H29         16.5381    -9.9275    20.5041 H            1 M671287   0.0000
    64 H30         14.9371   -11.9059    19.0419 H            1 M671287   0.0000
    65 H31         14.7629   -10.3002    18.8010 H            1 M671287   0.0000
    66 H32         14.1625   -12.9516    21.1114 H            1 M671287   0.0000
    67 H33         12.5936   -12.8447    22.9105 H            1 M671287   0.0000
    68 H34         12.0419    -8.7739    22.1812 H            1 M671287   0.0000
    69 H35         13.6527    -8.9028    20.4181 H            1 M671287   0.0000
    70 H36          9.8445   -11.7661    24.8777 H            1 M671287   0.0000
    71 H37         10.6614   -12.6678    23.6450 H            1 M671287   0.0000
    72 H38         10.2720    -9.5220    25.1930 H            1 M671287   0.0000
    73 H39         16.4133   -14.8905    23.4994 H            1 M671287   0.0000
    74 H40         11.4300    -8.7221    24.1835 H            1 M671287   0.0000
@<TRIPOS>BOND
     1    1    2       1
     2    2    3       1
     3    3    4       1
     4    4    5      am
     5    5    6       2
     6    5    7       1
     7    7    8       1
     8    8    9       1
     9    9   10       1
    10    9   16       1
    11   10   11       1
    12   10   15       1
    13   11   12       1
    14   12   13       1
    15   13   14       1
    16   14   15       1
    17   16   17       2
    18   16   18      am
    19   18   19       1
    20   18   21       1
    21   19   20       1
    22   20   21       1
    23   21   22       1
    24   22   23       2
    25   22   24      am
    26   24   25       1
    27   25   26       1
    28   26   27      ar
    29   26   31      ar
    30   27   28      ar
    31   28   29      ar
    32   29   30      ar
    33   29   32       1
    34   30   31      ar
    35   32   33      ar
    36   32   34      ar
    37    1   35       1
    38    1   36       1
    39    1   37       1
    40    2   38       1
    41    2   39       1
    42    3   40       1
    43    3   41       1
    44    4   42       1
    45    7   43       1
    46    7   44       1
    47    8   45       1
    48    9   46       1
    49   10   47       1
    50   11   48       1
    51   11   49       1
    52   12   50       1
    53   12   51       1
    54   13   52       1
    55   13   53       1
    56   14   54       1
    57   14   55       1
    58   15   56       1
    59   15   57       1
    60   19   58       1
    61   19   59       1
    62   20   60       1
    63   20   61       1
    64   21   62       1
    65   24   63       1
    66   25   64       1
    67   25   65       1
    68   27   66       1
    69   28   67       1
    70   30   68       1
    71   31   69       1
    72   33   70       1
    73   33   71       1
    74   34   72       1
    75    8   73       1
    76   34   74       1
@<TRIPOS>SUBSTRUCTURE
     1 M671287     1 GROUP             4 B     M67     0 **** M67 B1287
