@<TRIPOS>MOLECULE
3s2u_UD1_1_ligand
   64    66     1     0     0
SMALL
NO_CHARGES


@<TRIPOS>ATOM
     1 C1'         14.8680   -15.6840   -15.0080 C.3          1 UD1366   0.0000
     2 C2'         15.5940   -16.1160   -13.7440 C.3          1 UD1366   0.0000
     3 C3'         14.9280   -17.4130   -13.2720 C.3          1 UD1366   0.0000
     4 C4'         13.4280   -17.2410   -13.0000 C.3          1 UD1366   0.0000
     5 C5'         12.6760   -16.2050   -13.8860 C.3          1 UD1366   0.0000
     6 C6'         11.8730   -15.2360   -12.9980 C.3          1 UD1366   0.0000
     7 C7'         18.0330   -15.5990   -13.7000 C.2          1 UD1366   0.0000
     8 C8'         19.3800   -16.1420   -14.0860 C.3          1 UD1366   0.0000
     9 N2'         16.9950   -16.3500   -14.0960 N.am         1 UD1366   0.0000
    10 O1'         14.9600   -16.7810   -15.9060 O.3          1 UD1366   0.0000
    11 O3'         15.6320   -17.9640   -12.1580 O.3          1 UD1366   0.0000
    12 O4'         12.7790   -18.5170   -13.1390 O.3          1 UD1366   0.0000
    13 O5'         13.4800   -15.3700   -14.7550 O.3          1 UD1366   0.0000
    14 O6'         10.4590   -15.4530   -13.1000 O.3          1 UD1366   0.0000
    15 O7'         17.9100   -14.5520   -13.0770 O.2          1 UD1366   0.0000
    16 N1          13.8970   -18.1400   -24.5690 N.pl3        1 UD1366   0.0000
    17 C2          13.7160   -17.9240   -25.9630 C.2          1 UD1366   0.0000
    18 N3          14.8040   -17.9320   -26.7670 N.pl3        1 UD1366   0.0000
    19 C4          16.0310   -18.1880   -26.2750 C.2          1 UD1366   0.0000
    20 C5          16.2500   -18.3020   -24.8820 C.2          1 UD1366   0.0000
    21 C6          15.1380   -18.2100   -24.0270 C.2          1 UD1366   0.0000
    22 O2          12.5550   -17.6800   -26.4320 O.2          1 UD1366   0.0000
    23 O4          16.9200   -18.5140   -27.0770 O.2          1 UD1366   0.0000
    24 C1B         12.6980   -18.0360   -23.7390 C.3          1 UD1366   0.0000
    25 C2B         12.1810   -19.4090   -23.3700 C.3          1 UD1366   0.0000
    26 O2'         11.5720   -20.1050   -24.4720 O.3          1 UD1366   0.0000
    27 C3B         11.2140   -19.0320   -22.2850 C.3          1 UD1366   0.0000
    28 C4B         11.9490   -17.9080   -21.5560 C.3          1 UD1366   0.0000
    29 O4B         12.8610   -17.3440   -22.5000 O.3          1 UD1366   0.0000
    30 O3B         10.0050   -18.5410   -22.8860 O.3          1 UD1366   0.0000
    31 C5B         12.8460   -18.4680   -20.4780 C.3          1 UD1366   0.0000
    32 O5B         12.1900   -18.3080   -19.2310 O.3          1 UD1366   0.0000
    33 PA          12.8710   -18.8280   -17.8740 P.3          1 UD1366   0.0000
    34 O1A         11.9340   -18.3800   -16.7870 O.co2        1 UD1366   0.0000
    35 O2A         13.1240   -20.2950   -18.0660 O.co2        1 UD1366  -1.0000
    36 O3A         14.3550   -18.1670   -17.8710 O.3          1 UD1366   0.0000
    37 PB          14.7290   -16.6360   -17.4720 P.3          1 UD1366   0.0000
    38 O1B         13.5500   -15.7330   -17.6290 O.co2        1 UD1366   0.0000
    39 O2B         16.0670   -16.2680   -18.0180 O.co2        1 UD1366  -1.0000
    40 H1'         15.3260   -14.8875   -15.4028 H            1 UD1366   0.0000
    41 H2'         15.5229   -15.4093   -13.0401 H            1 UD1366   0.0000
    42 H3'         15.0124   -18.0703   -14.0209 H            1 UD1366   0.0000
    43 H4'         13.3257   -16.9533   -12.0477 H            1 UD1366   0.0000
    44 H5'         12.0263   -16.7058   -14.4580 H            1 UD1366   0.0000
    45 H6'1        12.0760   -14.2981   -13.2794 H            1 UD1366   0.0000
    46 H6'2        12.1509   -15.3660   -12.0462 H            1 UD1366   0.0000
    47 H8'1        20.0950   -15.5263   -13.7549 H            1 UD1366   0.0000
    48 H8'2        19.5040   -17.0466   -13.6783 H            1 UD1366   0.0000
    49 H8'3        19.4373   -16.2144   -15.0817 H            1 UD1366   0.0000
    50 H11         17.1951   -17.1360   -14.6810 H            1 UD1366   0.0000
    51 H12         15.0176   -18.0222   -11.3711 H            1 UD1366   0.0000
    52 H13         11.9840   -18.5543   -12.5336 H            1 UD1366   0.0000
    53 H6'         10.0171   -14.6200   -13.4330 H            1 UD1366   0.0000
    54 H15         14.6951   -17.7446   -27.7432 H            1 UD1366   0.0000
    55 H16         17.1697   -18.4440   -24.5160 H            1 UD1366   0.0000
    56 H17         15.2602   -18.1964   -23.0346 H            1 UD1366   0.0000
    57 H1B         11.9908   -17.5673   -24.2684 H            1 UD1366   0.0000
    58 H2B         12.9227   -19.9602   -22.9879 H            1 UD1366   0.0000
    59 H20         10.8587   -20.7153   -24.1275 H            1 UD1366   0.0000
    60 H3B         11.0310   -19.8034   -21.6755 H            1 UD1366   0.0000
    61 H4B         11.3164   -17.2229   -21.1948 H            1 UD1366   0.0000
    62 H23          9.3735   -19.3021   -23.0342 H            1 UD1366   0.0000
    63 H5B1        13.7151   -17.9734   -20.4696 H            1 UD1366   0.0000
    64 H5B2        13.0164   -19.4384   -20.6492 H            1 UD1366   0.0000
@<TRIPOS>BOND
     1    1    2       1
     2    1   10       1
     3    1   13       1
     4    2    3       1
     5    2    9       1
     6    3    4       1
     7    3   11       1
     8    4    5       1
     9    4   12       1
    10    5    6       1
    11    5   13       1
    12    6   14       1
    13    7    8       1
    14    7    9      am
    15    7   15       2
    16   10   37       1
    17   16   17       1
    18   16   21       1
    19   16   24       1
    20   17   18       1
    21   17   22       2
    22   18   19       1
    23   19   20       1
    24   19   23       2
    25   20   21       2
    26   24   25       1
    27   24   29       1
    28   25   26       1
    29   25   27       1
    30   27   28       1
    31   27   30       1
    32   28   29       1
    33   28   31       1
    34   31   32       1
    35   32   33       1
    36   33   34      ar
    37   33   35      ar
    38   33   36       1
    39   36   37       1
    40   37   38      ar
    41   37   39      ar
    42    1   40       1
    43    2   41       1
    44    3   42       1
    45    4   43       1
    46    5   44       1
    47    6   45       1
    48    6   46       1
    49    8   47       1
    50    8   48       1
    51    8   49       1
    52    9   50       1
    53   11   51       1
    54   12   52       1
    55   14   53       1
    56   18   54       1
    57   20   55       1
    58   21   56       1
    59   24   57       1
    60   25   58       1
    61   26   59       1
    62   27   60       1
    63   28   61       1
    64   30   62       1
    65   31   63       1
    66   31   64       1
@<TRIPOS>SUBSTRUCTURE
     1 UD1366      1 GROUP             4 A     UD1     0 **** UD1 A 366
