@<TRIPOS>MOLECULE
4x9d_U5P_3_ligand
   32    33     1     0     0
SMALL
NO_CHARGES


@<TRIPOS>ATOM
     1 N1         111.4360    -2.9900    26.2760 N.pl3        1 U5P104   0.0000
     2 C2         111.1100    -4.0350    27.1030 C.2          1 U5P104   0.0000
     3 N3         111.0950    -5.2760    26.5140 N.pl3        1 U5P104   0.0000
     4 C4         111.3790    -5.5560    25.1920 C.2          1 U5P104   0.0000
     5 C5         111.7140    -4.4160    24.3960 C.2          1 U5P104   0.0000
     6 C6         111.7290    -3.1980    24.9490 C.2          1 U5P104   0.0000
     7 O2         110.8380    -3.8530    28.2760 O.2          1 U5P104   0.0000
     8 O4         111.3310    -6.7200    24.7990 O.2          1 U5P104   0.0000
     9 C1'        111.4390    -1.6510    26.9030 C.3          1 U5P104   0.0000
    10 C2'        112.8030    -1.2750    27.4800 C.3          1 U5P104   0.0000
    11 O2'        112.5920    -0.4570    28.6190 O.3          1 U5P104   0.0000
    12 C3'        113.4060    -0.4710    26.3360 C.3          1 U5P104   0.0000
    13 C4'        112.1950     0.2380    25.7450 C.3          1 U5P104   0.0000
    14 O3'        114.4240     0.4260    26.7480 O.3          1 U5P104   0.0000
    15 O4'        111.1080    -0.7010    25.9180 O.3          1 U5P104   0.0000
    16 C5'        112.2970     0.5990    24.2890 C.3          1 U5P104   0.0000
    17 O5'        112.6880     1.9470    24.1200 O.3          1 U5P104   0.0000
    18 P          113.1550     2.4840    22.7000 P.3          1 U5P104   0.0000
    19 O1P        113.3940     1.3050    21.8280 O.co2        1 U5P104   0.0000
    20 O2P        112.1700     3.5170    22.2690 O.co2        1 U5P104  -1.0000
    21 O3P        114.4520     3.1670    22.9090 O.co2        1 U5P104  -1.0000
    22 H1         110.8554    -6.0510    27.0988 H            1 U5P104   0.0000
    23 H2         111.9366    -4.5292    23.4277 H            1 U5P104   0.0000
    24 H3         111.9615    -2.4113    24.3771 H            1 U5P104   0.0000
    25 H1'        110.7537    -1.6252    27.6308 H            1 U5P104   0.0000
    26 H2'        113.3512    -2.0826    27.6975 H            1 U5P104   0.0000
    27 H6         112.5224    -1.0321    29.4341 H            1 U5P104   0.0000
    28 H3'        113.7807    -1.1007    25.6555 H            1 U5P104   0.0000
    29 H4'        112.0048     1.0635    26.2764 H            1 U5P104   0.0000
    30 H9         114.0473     1.0784    27.4056 H            1 U5P104   0.0000
    31 H5'1       111.4061     0.4616    23.8562 H            1 U5P104   0.0000
    32 H5'2       112.9743     0.0063    23.8531 H            1 U5P104   0.0000
@<TRIPOS>BOND
     1    1    2       1
     2    1    6       1
     3    1    9       1
     4    2    3       1
     5    2    7       2
     6    3    4       1
     7    4    5       1
     8    4    8       2
     9    5    6       2
    10    9   10       1
    11    9   15       1
    12   10   11       1
    13   10   12       1
    14   12   13       1
    15   12   14       1
    16   13   15       1
    17   13   16       1
    18   16   17       1
    19   17   18       1
    20   18   19      ar
    21   18   20      ar
    22   18   21      ar
    23    3   22       1
    24    5   23       1
    25    6   24       1
    26    9   25       1
    27   10   26       1
    28   11   27       1
    29   12   28       1
    30   13   29       1
    31   14   30       1
    32   16   31       1
    33   16   32       1
@<TRIPOS>SUBSTRUCTURE
     1 U5P104      1 GROUP             4 C     U5P     0 **** U5P C 104
