@<TRIPOS>MOLECULE
4qt3_RAP_1_ligand
  144   147     1     0     0
SMALL
NO_CHARGES


@<TRIPOS>ATOM
     1 C1           8.8030    13.0510    -4.7610 C.2          1 RAP202   0.0000
     2 O1           9.7620    12.3200    -4.0200 O.3          1 RAP202   0.0000
     3 O2           9.1330    13.6630    -5.7530 O.2          1 RAP202   0.0000
     4 C2           7.3850    12.9620    -4.2810 C.3          1 RAP202   0.0000
     5 C3           6.8270    14.3760    -4.0770 C.3          1 RAP202   0.0000
     6 C4           7.3600    15.0170    -2.8060 C.3          1 RAP202   0.0000
     7 C5           7.0180    14.1290    -1.6260 C.3          1 RAP202   0.0000
     8 C6           7.6760    12.7760    -1.8070 C.3          1 RAP202   0.0000
     9 N7           7.1890    12.1590    -3.0510 N.am         1 RAP202   0.0000
    10 C8           6.5610    10.9660    -3.1510 C.2          1 RAP202   0.0000
    11 O3           6.2060    10.5050    -4.2230 O.2          1 RAP202   0.0000
    12 C9           6.2670    10.1560    -1.9610 C.2          1 RAP202   0.0000
    13 O4           5.1990    10.3040    -1.3800 O.2          1 RAP202   0.0000
    14 C10          7.2740     9.1470    -1.4670 C.3          1 RAP202   0.0000
    15 O5           8.2480     9.9500    -0.8330 O.3          1 RAP202   0.0000
    16 O6           6.6620     8.2860    -0.5120 O.3          1 RAP202   0.0000
    17 C11          7.9270     8.3240    -2.5840 C.3          1 RAP202   0.0000
    18 C12          9.1240     7.5490    -2.0370 C.3          1 RAP202   0.0000
    19 C13         10.0940     8.4550    -1.2630 C.3          1 RAP202   0.0000
    20 C14          9.3510     9.2820    -0.2210 C.3          1 RAP202   0.0000
    21 C15         10.2100    10.3920     0.3720 C.3          1 RAP202   0.0000
    22 C16         11.3350     9.8920     1.2870 C.3          1 RAP202   0.0000
    23 O7          10.7200     9.3140     2.4400 O.3          1 RAP202   0.0000
    24 C17         12.2550    11.0490     1.6250 C.2          1 RAP202   0.0000
    25 C18         13.5010    11.0710     1.0900 C.2          1 RAP202   0.0000
    26 C19         14.4690    12.1590     1.2930 C.2          1 RAP202   0.0000
    27 C20         15.6420    12.1280     0.6440 C.2          1 RAP202   0.0000
    28 C21         16.6000    13.2330     0.7780 C.2          1 RAP202   0.0000
    29 C22         17.7420    13.2240     0.0660 C.2          1 RAP202   0.0000
    30 C23         18.7300    14.3800     0.1260 C.3          1 RAP202   0.0000
    31 C24         18.9170    14.9600    -1.2800 C.3          1 RAP202   0.0000
    32 C25         17.6070    15.4120    -1.9320 C.3          1 RAP202   0.0000
    33 C26         17.8530    15.6160    -3.3950 C.2          1 RAP202   0.0000
    34 O8          18.2250    16.7090    -3.8070 O.2          1 RAP202   0.0000
    35 C27         17.6460    14.4630    -4.3410 C.3          1 RAP202   0.0000
    36 O9          18.3010    14.7040    -5.5860 O.3          1 RAP202   0.0000
    37 C28         16.1550    14.2750    -4.6750 C.3          1 RAP202   0.0000
    38 O10         15.6630    15.5430    -5.1180 O.3          1 RAP202   0.0000
    39 C29         15.3410    13.6890    -3.5460 C.2          1 RAP202   0.0000
    40 C30         14.3460    14.4020    -2.9850 C.2          1 RAP202   0.0000
    41 C31         13.4350    13.9380    -1.8640 C.3          1 RAP202   0.0000
    42 C32         12.1150    13.6430    -2.5270 C.2          1 RAP202   0.0000
    43 O11         11.1940    14.4510    -2.5280 O.2          1 RAP202   0.0000
    44 C33         11.9800    12.3040    -3.2070 C.3          1 RAP202   0.0000
    45 C34         11.1320    12.3780    -4.4720 C.3          1 RAP202   0.0000
    46 C35         11.3690    11.2190    -5.4500 C.3          1 RAP202   0.0000
    47 C36         12.7250    11.2290    -6.1650 C.3          1 RAP202   0.0000
    48 C37         12.9830    12.4180    -7.0820 C.3          1 RAP202   0.0000
    49 C38         14.3540    12.2370    -7.7490 C.3          1 RAP202   0.0000
    50 C39         14.7060    13.3980    -8.6640 C.3          1 RAP202   0.0000
    51 O12         15.9530    13.1880    -9.3350 O.3          1 RAP202   0.0000
    52 C40         13.6440    13.5560    -9.7280 C.3          1 RAP202   0.0000
    53 O13         13.9990    14.6590   -10.5710 O.3          1 RAP202   0.0000
    54 C41         12.2790    13.7680    -9.0770 C.3          1 RAP202   0.0000
    55 C42         11.9290    12.5820    -8.1800 C.3          1 RAP202   0.0000
    56 C43          6.9240     7.3750    -3.2290 C.3          1 RAP202   0.0000
    57 C44         11.7350    12.1250     2.5420 C.3          1 RAP202   0.0000
    58 C45         20.0750    13.9730     0.7380 C.3          1 RAP202   0.0000
    59 C46         17.0720    16.6750    -1.2590 C.3          1 RAP202   0.0000
    60 C47         15.6960    12.2960    -3.0930 C.3          1 RAP202   0.0000
    61 C48         13.3020    15.0100    -0.7840 C.3          1 RAP202   0.0000
    62 C49         11.2110     9.8670    -4.7530 C.3          1 RAP202   0.0000
    63 C50         11.6470     8.6670     3.3020 C.3          1 RAP202   0.0000
    64 C51         19.7240    14.5690    -5.4980 C.3          1 RAP202   0.0000
    65 C52         17.0990    13.5090    -8.5480 C.3          1 RAP202   0.0000
    66 H1           6.8498    12.5313    -5.0077 H            1 RAP202   0.0000
    67 H2           5.8299    14.3251    -4.0200 H            1 RAP202   0.0000
    68 H3           7.0877    14.9425    -4.8588 H            1 RAP202   0.0000
    69 H4           6.9400    15.9160    -2.6821 H            1 RAP202   0.0000
    70 H5           8.3526    15.1190    -2.8725 H            1 RAP202   0.0000
    71 H6           6.0262    14.0131    -1.5720 H            1 RAP202   0.0000
    72 H7           7.3506    14.5516    -0.7829 H            1 RAP202   0.0000
    73 H8           7.4482    12.1876    -1.0312 H            1 RAP202   0.0000
    74 H9           8.6680    12.8914    -1.8578 H            1 RAP202   0.0000
    75 H10          6.3293     8.8275     0.2600 H            1 RAP202   0.0000
    76 H11          8.2570     8.9552    -3.2860 H            1 RAP202   0.0000
    77 H12          9.6141     7.1307    -2.8017 H            1 RAP202   0.0000
    78 H13          8.7915     6.8334    -1.4228 H            1 RAP202   0.0000
    79 H14         10.5501     9.0709    -1.9054 H            1 RAP202   0.0000
    80 H15         10.7770     7.8869    -0.8039 H            1 RAP202   0.0000
    81 H16          9.0201     8.6850     0.5098 H            1 RAP202   0.0000
    82 H17          9.6178    10.9971     0.9042 H            1 RAP202   0.0000
    83 H18         10.6221    10.9061    -0.3803 H            1 RAP202   0.0000
    84 H19         11.8580     9.1875     0.8074 H            1 RAP202   0.0000
    85 H20         13.7794    10.2974     0.5207 H            1 RAP202   0.0000
    86 H21         14.2543    12.9160     1.9101 H            1 RAP202   0.0000
    87 H22         15.8665    11.3453     0.0635 H            1 RAP202   0.0000
    88 H23         16.4037    13.9923     1.3984 H            1 RAP202   0.0000
    89 H24         17.9465    12.4379    -0.5172 H            1 RAP202   0.0000
    90 H25         18.3332    15.0940     0.7029 H            1 RAP202   0.0000
    91 H26         19.3337    14.2591    -1.8589 H            1 RAP202   0.0000
    92 H27         19.5288    15.7486    -1.2186 H            1 RAP202   0.0000
    93 H28         16.9306    14.6836    -1.8227 H            1 RAP202   0.0000
    94 H29         18.0053    13.6248    -3.9306 H            1 RAP202   0.0000
    95 H30         16.0969    13.6429    -5.4477 H            1 RAP202   0.0000
    96 H31         14.6926    15.4629    -5.3459 H            1 RAP202   0.0000
    97 H32         14.1931    15.3240    -3.3407 H            1 RAP202   0.0000
    98 H33         13.8014    13.0998    -1.4602 H            1 RAP202   0.0000
    99 H34         11.5522    11.6622    -2.5706 H            1 RAP202   0.0000
   100 H35         12.8920    11.9740    -3.4505 H            1 RAP202   0.0000
   101 H36         11.2962    13.2484    -4.9362 H            1 RAP202   0.0000
   102 H37         10.6612    11.2749    -6.1542 H            1 RAP202   0.0000
   103 H38         12.7870    10.3972    -6.7165 H            1 RAP202   0.0000
   104 H39         13.4403    11.2197    -5.4662 H            1 RAP202   0.0000
   105 H40         13.0027    13.2511    -6.5292 H            1 RAP202   0.0000
   106 H41         14.3410    11.3948    -8.2880 H            1 RAP202   0.0000
   107 H42         15.0518    12.1659    -7.0363 H            1 RAP202   0.0000
   108 H43         14.7595    14.2383    -8.1245 H            1 RAP202   0.0000
   109 H44         13.6131    12.7231   -10.2806 H            1 RAP202   0.0000
   110 H45         14.5166    15.3306   -10.0409 H            1 RAP202   0.0000
   111 H46         11.5839    13.8585    -9.7902 H            1 RAP202   0.0000
   112 H47         12.3022    14.6024    -8.5264 H            1 RAP202   0.0000
   113 H48         11.0356    12.7390    -7.7590 H            1 RAP202   0.0000
   114 H49         11.8955    11.7491    -8.7324 H            1 RAP202   0.0000
   115 H50          7.3765     6.8527    -3.9518 H            1 RAP202   0.0000
   116 H51          6.5670     6.7470    -2.5375 H            1 RAP202   0.0000
   117 H52          6.1703     7.9026    -3.6209 H            1 RAP202   0.0000
   118 H53         12.4424    12.8189     2.6765 H            1 RAP202   0.0000
   119 H54         10.9261    12.5484     2.1341 H            1 RAP202   0.0000
   120 H55         11.4913    11.7221     3.4242 H            1 RAP202   0.0000
   121 H56         20.6865    14.7640     0.7549 H            1 RAP202   0.0000
   122 H57         19.9306    13.6433     1.6710 H            1 RAP202   0.0000
   123 H58         20.4854    13.2461     0.1874 H            1 RAP202   0.0000
   124 H59         16.2181    16.9514    -1.6999 H            1 RAP202   0.0000
   125 H60         16.9028    16.4907    -0.2908 H            1 RAP202   0.0000
   126 H61         17.7450    17.4096    -1.3458 H            1 RAP202   0.0000
   127 H62         15.0895    12.0237    -2.3460 H            1 RAP202   0.0000
   128 H63         15.5900    11.6598    -3.8572 H            1 RAP202   0.0000
   129 H64         16.6440    12.2803    -2.7752 H            1 RAP202   0.0000
   130 H65         12.6978    14.6795    -0.0589 H            1 RAP202   0.0000
   131 H66         14.2036    15.2109    -0.4009 H            1 RAP202   0.0000
   132 H67         12.9175    15.8414    -1.1851 H            1 RAP202   0.0000
   133 H68         11.3704     9.1317    -5.4118 H            1 RAP202   0.0000
   134 H69         11.8742     9.7966    -4.0079 H            1 RAP202   0.0000
   135 H70         10.2851     9.7886    -4.3836 H            1 RAP202   0.0000
   136 H71         11.1606     8.2838     4.0872 H            1 RAP202   0.0000
   137 H72         12.1080     7.9322     2.8045 H            1 RAP202   0.0000
   138 H73         12.3245     9.3299     3.6207 H            1 RAP202   0.0000
   139 H74         20.1318    14.7474    -6.3935 H            1 RAP202   0.0000
   140 H75         20.0805    15.2249    -4.8327 H            1 RAP202   0.0000
   141 H76         19.9533    13.6404    -5.2064 H            1 RAP202   0.0000
   142 H77         17.9278    13.3377    -9.0807 H            1 RAP202   0.0000
   143 H78         17.0643    14.4736    -8.2865 H            1 RAP202   0.0000
   144 H79         17.1081    12.9407    -7.7252 H            1 RAP202   0.0000
@<TRIPOS>BOND
     1    1    2       1
     2    1    3       2
     3    1    4       1
     4    2   45       1
     5    4    5       1
     6    4    9       1
     7    5    6       1
     8    6    7       1
     9    7    8       1
    10    8    9       1
    11    9   10      am
    12   10   11       2
    13   10   12       1
    14   12   13       2
    15   12   14       1
    16   14   15       1
    17   14   16       1
    18   14   17       1
    19   15   20       1
    20   17   18       1
    21   17   56       1
    22   18   19       1
    23   19   20       1
    24   20   21       1
    25   21   22       1
    26   22   23       1
    27   22   24       1
    28   23   63       1
    29   24   25       2
    30   24   57       1
    31   25   26       1
    32   26   27       2
    33   27   28       1
    34   28   29       2
    35   29   30       1
    36   30   31       1
    37   30   58       1
    38   31   32       1
    39   32   33       1
    40   32   59       1
    41   33   34       2
    42   33   35       1
    43   35   36       1
    44   35   37       1
    45   36   64       1
    46   37   38       1
    47   37   39       1
    48   39   40       2
    49   39   60       1
    50   40   41       1
    51   41   42       1
    52   41   61       1
    53   42   43       2
    54   42   44       1
    55   44   45       1
    56   45   46       1
    57   46   47       1
    58   46   62       1
    59   47   48       1
    60   48   49       1
    61   48   55       1
    62   49   50       1
    63   50   51       1
    64   50   52       1
    65   51   65       1
    66   52   53       1
    67   52   54       1
    68   54   55       1
    69    4   66       1
    70    5   67       1
    71    5   68       1
    72    6   69       1
    73    6   70       1
    74    7   71       1
    75    7   72       1
    76    8   73       1
    77    8   74       1
    78   16   75       1
    79   17   76       1
    80   18   77       1
    81   18   78       1
    82   19   79       1
    83   19   80       1
    84   20   81       1
    85   21   82       1
    86   21   83       1
    87   22   84       1
    88   25   85       1
    89   26   86       1
    90   27   87       1
    91   28   88       1
    92   29   89       1
    93   30   90       1
    94   31   91       1
    95   31   92       1
    96   32   93       1
    97   35   94       1
    98   37   95       1
    99   38   96       1
   100   40   97       1
   101   41   98       1
   102   44   99       1
   103   44  100       1
   104   45  101       1
   105   46  102       1
   106   47  103       1
   107   47  104       1
   108   48  105       1
   109   49  106       1
   110   49  107       1
   111   50  108       1
   112   52  109       1
   113   53  110       1
   114   54  111       1
   115   54  112       1
   116   55  113       1
   117   55  114       1
   118   56  115       1
   119   56  116       1
   120   56  117       1
   121   57  118       1
   122   57  119       1
   123   57  120       1
   124   58  121       1
   125   58  122       1
   126   58  123       1
   127   59  124       1
   128   59  125       1
   129   59  126       1
   130   60  127       1
   131   60  128       1
   132   60  129       1
   133   61  130       1
   134   61  131       1
   135   61  132       1
   136   62  133       1
   137   62  134       1
   138   62  135       1
   139   63  136       1
   140   63  137       1
   141   63  138       1
   142   64  139       1
   143   64  140       1
   144   64  141       1
   145   65  142       1
   146   65  143       1
   147   65  144       1
@<TRIPOS>SUBSTRUCTURE
     1 RAP202      1 GROUP             4 A     RAP     0 **** RAP A 202
