@<TRIPOS>MOLECULE
2w5y_SAH_1_ligand
   46    48     1     0     0
SMALL
NO_CHARGES


@<TRIPOS>ATOM
     1 N          -40.3820     6.3370    17.7410 N.4          1 SAH4971   1.0000
     2 CA         -40.8700     7.3420    16.8000 C.3          1 SAH4971   0.0000
     3 CB         -39.7860     8.3860    16.4780 C.3          1 SAH4971   0.0000
     4 CG         -39.7230     9.5370    17.4830 C.3          1 SAH4971   0.0000
     5 SD         -41.1380    10.6720    17.2870 S.3          1 SAH4971   0.0000
     6 C          -41.4840     6.6880    15.5550 C.2          1 SAH4971   0.0000
     7 O          -41.4960     5.4670    15.4140 O.co2        1 SAH4971   0.0000
     8 OXT        -41.9980     7.3510    14.6610 O.co2        1 SAH4971  -1.0000
     9 C5'        -41.4890    10.8460    19.0540 C.3          1 SAH4971   0.0000
    10 C4'        -42.5860     9.8920    19.5300 C.3          1 SAH4971   0.0000
    11 O4'        -42.0700     8.5820    19.7330 O.3          1 SAH4971   0.0000
    12 C3'        -43.1950    10.3270    20.8510 C.3          1 SAH4971   0.0000
    13 O3'        -44.3590    11.0880    20.6480 O.3          1 SAH4971   0.0000
    14 C2'        -43.5550     9.0220    21.5080 C.3          1 SAH4971   0.0000
    15 O2'        -44.8110     8.6380    21.0150 O.3          1 SAH4971   0.0000
    16 C1'        -42.5410     8.0420    20.9550 C.3          1 SAH4971   0.0000
    17 N9         -41.4210     7.9200    21.9070 N.pl3        1 SAH4971   0.0000
    18 C8         -40.1770     8.4830    21.7670 C.2          1 SAH4971   0.0000
    19 N7         -39.4330     8.1480    22.8460 N.2          1 SAH4971   0.0000
    20 C5         -40.1800     7.3880    23.6810 C.ar         1 SAH4971   0.0000
    21 C6         -39.9150     6.7910    24.9100 C.ar         1 SAH4971   0.0000
    22 N6         -38.7260     6.9140    25.4900 N.pl3        1 SAH4971   0.0000
    23 N1         -40.9050     6.0600    25.5360 N.ar         1 SAH4971   0.0000
    24 C2         -42.1440     5.9180    24.9420 C.ar         1 SAH4971   0.0000
    25 N3         -42.3980     6.5130    23.7210 N.ar         1 SAH4971   0.0000
    26 C4         -41.4360     7.2380    23.1000 C.ar         1 SAH4971   0.0000
    27 H1         -41.1444     5.9988    18.2926 H            1 SAH4971   0.0000
    28 H2         -39.9737     5.5771    17.2351 H            1 SAH4971   0.0000
    29 HA         -41.6104     7.8308    17.2614 H            1 SAH4971   0.0000
    30 HB1        -39.9738     8.7672    15.5728 H            1 SAH4971   0.0000
    31 HB2        -38.8980     7.9263    16.4684 H            1 SAH4971   0.0000
    32 HG1        -38.8748    10.0471    17.3404 H            1 SAH4971   0.0000
    33 HG2        -39.7339     9.1607    18.4094 H            1 SAH4971   0.0000
    34 H5'1       -41.7817    11.7855    19.2318 H            1 SAH4971   0.0000
    35 H5'2       -40.6525    10.6546    19.5675 H            1 SAH4971   0.0000
    36 H4'        -43.3062     9.8537    18.8373 H            1 SAH4971   0.0000
    37 H3'        -42.5301    10.8320    21.4013 H            1 SAH4971   0.0000
    38 H12        -44.4649    11.7416    21.3974 H            1 SAH4971   0.0000
    39 H2'        -43.5336     9.0752    22.5064 H            1 SAH4971   0.0000
    40 H14        -45.3427     9.4534    20.7859 H            1 SAH4971   0.0000
    41 H1'        -42.9663     7.1501    20.8010 H            1 SAH4971   0.0000
    42 H16        -39.8725     9.0452    20.9981 H            1 SAH4971   0.0000
    43 H17        -38.5531     6.4783    26.3733 H            1 SAH4971   0.0000
    44 H18        -38.0040     7.4423    25.0432 H            1 SAH4971   0.0000
    45 H19        -42.8575     5.3843    25.3959 H            1 SAH4971   0.0000
    46 H20        -39.6937     6.7471    18.3394 H            1 SAH4971   0.0000
@<TRIPOS>BOND
     1    1    2       1
     2    2    3       1
     3    2    6       1
     4    3    4       1
     5    4    5       1
     6    5    9       1
     7    6    7      ar
     8    6    8      ar
     9    9   10       1
    10   10   11       1
    11   10   12       1
    12   11   16       1
    13   12   13       1
    14   12   14       1
    15   14   15       1
    16   14   16       1
    17   16   17       1
    18   17   18       1
    19   17   26       1
    20   18   19       2
    21   19   20       1
    22   20   21      ar
    23   20   26      ar
    24   21   22       1
    25   21   23      ar
    26   23   24      ar
    27   24   25      ar
    28   25   26      ar
    29    1   27       1
    30    1   28       1
    31    2   29       1
    32    3   30       1
    33    3   31       1
    34    4   32       1
    35    4   33       1
    36    1   46       1
    37    9   34       1
    38    9   35       1
    39   10   36       1
    40   12   37       1
    41   13   38       1
    42   14   39       1
    43   15   40       1
    44   16   41       1
    45   18   42       1
    46   22   43       1
    47   22   44       1
    48   24   45       1
@<TRIPOS>SUBSTRUCTURE
     1 SAH4971     1 GROUP             4 A     SAH     0 **** SAH A4971
