@<TRIPOS>MOLECULE
4bmo_FMN_1_ligand
   50    52     1     0     0
SMALL
NO_CHARGES


@<TRIPOS>ATOM
     1 N1          31.9150    18.9570   -10.8600 N.2          1 FMN1120   0.0000
     2 C2          33.1300    19.3840   -10.5110 C.2          1 FMN1120   0.0000
     3 O2          33.3310    20.6350   -10.4690 O.2          1 FMN1120   0.0000
     4 N3          34.0910    18.5110   -10.1740 N.pl3        1 FMN1120   0.0000
     5 C4          33.9340    17.1610   -10.1150 C.2          1 FMN1120   0.0000
     6 O4          34.8980    16.4400    -9.7830 O.2          1 FMN1120   0.0000
     7 C4A         32.6750    16.5970   -10.5490 C.2          1 FMN1120   0.0000
     8 N5          32.3210    15.3030   -10.5690 N.2          1 FMN1120   0.0000
     9 C5A         31.1140    14.8590   -10.8770 C.ar         1 FMN1120   0.0000
    10 C6          30.8100    13.5110   -10.8980 C.ar         1 FMN1120   0.0000
    11 C7          29.5610    13.0770   -11.2710 C.ar         1 FMN1120   0.0000
    12 C7M         29.2540    11.6070   -11.3250 C.3          1 FMN1120   0.0000
    13 C8          28.4900    14.0430   -11.5890 C.ar         1 FMN1120   0.0000
    14 C8M         27.1150    13.6140   -12.0180 C.3          1 FMN1120   0.0000
    15 C9          28.8190    15.3940   -11.5800 C.ar         1 FMN1120   0.0000
    16 C9A         30.1030    15.8160   -11.2470 C.ar         1 FMN1120   0.0000
    17 N10         30.4060    17.2140   -11.2040 N.pl3        1 FMN1120   0.0000
    18 C10         31.6720    17.6190   -10.9190 C.2          1 FMN1120   0.0000
    19 C1'         29.3760    18.2240   -11.5470 C.3          1 FMN1120   0.0000
    20 C2'         29.0780    18.4320   -13.0380 C.3          1 FMN1120   0.0000
    21 O2'         30.3420    18.6190   -13.7080 O.3          1 FMN1120   0.0000
    22 C3'         28.0840    19.5820   -13.1620 C.3          1 FMN1120   0.0000
    23 O3'         26.7460    19.2120   -12.7220 O.3          1 FMN1120   0.0000
    24 C4'         27.9790    20.0380   -14.6090 C.3          1 FMN1120   0.0000
    25 O4'         27.1770    21.2330   -14.6630 O.3          1 FMN1120   0.0000
    26 C5'         27.3800    18.9790   -15.5220 C.3          1 FMN1120   0.0000
    27 O5'         27.2050    19.5500   -16.8520 O.3          1 FMN1120   0.0000
    28 P           26.1460    18.9320   -17.8950 P.3          1 FMN1120   0.0000
    29 O1P         26.2670    19.6760   -19.1490 O.co2        1 FMN1120   0.0000
    30 O2P         24.7410    19.1670   -17.2900 O.co2        1 FMN1120  -1.0000
    31 O3P         26.5980    17.4170   -18.0070 O.co2        1 FMN1120  -1.0000
    32 H1          34.9923    18.8810    -9.9488 H            1 FMN1120   0.0000
    33 H2          31.5077    12.8433   -10.6385 H            1 FMN1120   0.0000
    34 H7M1        28.3057    11.4749   -11.6136 H            1 FMN1120   0.0000
    35 H7M2        29.8664    11.1624   -11.9786 H            1 FMN1120   0.0000
    36 H7M3        29.3856    11.2055   -10.4186 H            1 FMN1120   0.0000
    37 H8M1        26.5497    14.4224   -12.1822 H            1 FMN1120   0.0000
    38 H8M2        27.1806    13.0768   -12.8589 H            1 FMN1120   0.0000
    39 H8M3        26.6998    13.0574   -11.2984 H            1 FMN1120   0.0000
    40 H9          28.1231    16.0722   -11.8162 H            1 FMN1120   0.0000
    41 H1'1        29.6771    19.1015   -11.1737 H            1 FMN1120   0.0000
    42 H1'2        28.5230    17.9483   -11.1039 H            1 FMN1120   0.0000
    43 H2'         28.6493    17.6020   -13.3948 H            1 FMN1120   0.0000
    44 H13         30.9131    17.8090   -13.5745 H            1 FMN1120   0.0000
    45 H3'         28.4061    20.3478   -12.6053 H            1 FMN1120   0.0000
    46 H15         26.1334    19.9960   -12.8222 H            1 FMN1120   0.0000
    47 H4'         28.8970    20.2578   -14.9390 H            1 FMN1120   0.0000
    48 H17         27.7180    21.9804   -15.0488 H            1 FMN1120   0.0000
    49 H5'1        26.4938    18.6873   -15.1622 H            1 FMN1120   0.0000
    50 H5'2        27.9948    18.1919   -15.5724 H            1 FMN1120   0.0000
@<TRIPOS>BOND
     1    1    2       1
     2    1   18       2
     3    2    3       2
     4    2    4       1
     5    4    5       1
     6    5    6       2
     7    5    7       1
     8    7    8       2
     9    7   18       1
    10    8    9       1
    11    9   10      ar
    12    9   16      ar
    13   10   11      ar
    14   11   12       1
    15   11   13      ar
    16   13   14       1
    17   13   15      ar
    18   15   16      ar
    19   16   17       1
    20   17   18       1
    21   17   19       1
    22   19   20       1
    23   20   21       1
    24   20   22       1
    25   22   23       1
    26   22   24       1
    27   24   25       1
    28   24   26       1
    29   26   27       1
    30   27   28       1
    31   28   29      ar
    32   28   30      ar
    33   28   31      ar
    34    4   32       1
    35   10   33       1
    36   12   34       1
    37   12   35       1
    38   12   36       1
    39   14   37       1
    40   14   38       1
    41   14   39       1
    42   15   40       1
    43   19   41       1
    44   19   42       1
    45   20   43       1
    46   21   44       1
    47   22   45       1
    48   23   46       1
    49   24   47       1
    50   25   48       1
    51   26   49       1
    52   26   50       1
@<TRIPOS>SUBSTRUCTURE
     1 FMN1120     1 GROUP             4 B     FMN     0 **** FMN B1120
