@<TRIPOS>MOLECULE
4ple_CPS_3_ligand
   70    73     1     0     0
SMALL
NO_CHARGES


@<TRIPOS>ATOM
     1 C1         -62.8520    -5.5320    15.6360 C.3          1 CPS604   0.0000
     2 C2         -62.3450    -6.9810    15.7210 C.3          1 CPS604   0.0000
     3 C3         -63.5120    -7.3410    17.9960 C.3          1 CPS604   0.0000
     4 C4         -63.4210    -7.8260    19.4380 C.3          1 CPS604   0.0000
     5 C5         -62.9070    -9.2780    19.5060 C.3          1 CPS604   0.0000
     6 C6         -61.5580    -9.3220    18.7470 C.3          1 CPS604   0.0000
     7 C7         -61.0150   -10.7130    19.0780 C.3          1 CPS604   0.0000
     8 C8         -61.4420   -10.9340    20.5410 C.3          1 CPS604   0.0000
     9 C9         -62.4620    -9.8280    20.8920 C.3          1 CPS604   0.0000
    10 C10        -63.9390   -10.2090    18.8470 C.3          1 CPS604   0.0000
    11 C11        -63.3370    -7.8700    14.9530 C.3          1 CPS604   0.0000
    12 C12        -61.8770    -4.5130    16.2260 C.3          1 CPS604   0.0000
    13 C13        -60.5560    -4.5760    15.4980 C.3          1 CPS604   0.0000
    14 C14        -59.9840    -5.9750    15.5710 C.3          1 CPS604   0.0000
    15 C15        -60.9490    -7.0500    15.0540 C.3          1 CPS604   0.0000
    16 C16        -60.3240    -8.4450    15.1600 C.3          1 CPS604   0.0000
    17 C17        -60.2810    -9.0130    16.5740 C.3          1 CPS604   0.0000
    18 C18        -61.6370    -8.8840    17.2790 C.3          1 CPS604   0.0000
    19 C19        -62.2080    -7.4580    17.1950 C.3          1 CPS604   0.0000
    20 C20        -63.5220   -10.3280    21.8930 C.3          1 CPS604   0.0000
    21 C21        -64.5440    -9.2660    22.2940 C.3          1 CPS604   0.0000
    22 C22        -62.8300   -10.8930    23.1440 C.3          1 CPS604   0.0000
    23 C23        -62.1660    -9.8330    24.0210 C.3          1 CPS604   0.0000
    24 C24        -61.3930   -10.4410    25.1640 C.2          1 CPS604   0.0000
    25 N1         -60.1303   -10.7722    24.9074 N.am         1 CPS604   0.0000
    26 O1         -61.9125   -10.6128    26.2641 O.2          1 CPS604   0.0000
    27 O2         -59.6320    -3.6480    16.0730 O.3          1 CPS604   0.0000
    28 O3         -59.2590    -8.3890    17.3520 O.3          1 CPS604   0.0000
    29 O4         -62.5790    -6.9420    20.1830 O.3          1 CPS604   0.0000
    30 H1         -63.7167    -5.4688    16.1342 H            1 CPS604   0.0000
    31 H2         -63.0042    -5.3052    14.6740 H            1 CPS604   0.0000
    32 H3         -63.7848    -6.3790    18.0078 H            1 CPS604   0.0000
    33 H4         -64.2131    -7.8806    17.5298 H            1 CPS604   0.0000
    34 H5         -64.3374    -7.7980    19.8373 H            1 CPS604   0.0000
    35 H6         -60.9556    -8.6679    19.2044 H            1 CPS604   0.0000
    36 H7         -60.0192   -10.7372    18.9898 H            1 CPS604   0.0000
    37 H8         -61.4195   -11.4051    18.4802 H            1 CPS604   0.0000
    38 H9         -60.6464   -10.8699    21.1434 H            1 CPS604   0.0000
    39 H10        -61.8649   -11.8345    20.6421 H            1 CPS604   0.0000
    40 H11        -61.9539    -9.0964    21.3465 H            1 CPS604   0.0000
    41 H12        -63.6108   -11.1527    18.8882 H            1 CPS604   0.0000
    42 H13        -64.8103   -10.1376    19.3326 H            1 CPS604   0.0000
    43 H14        -64.0668    -9.9419    17.8918 H            1 CPS604   0.0000
    44 H15        -63.0312    -8.8213    14.9918 H            1 CPS604   0.0000
    45 H16        -64.2434    -7.7941    15.3685 H            1 CPS604   0.0000
    46 H17        -63.3816    -7.5728    13.9992 H            1 CPS604   0.0000
    47 H18        -61.7311    -4.7171    17.1940 H            1 CPS604   0.0000
    48 H19        -62.2621    -3.5948    16.1333 H            1 CPS604   0.0000
    49 H20        -60.7027    -4.3353    14.5386 H            1 CPS604   0.0000
    50 H21        -59.7628    -6.1786    16.5247 H            1 CPS604   0.0000
    51 H22        -59.1493    -6.0062    15.0212 H            1 CPS604   0.0000
    52 H23        -61.0861    -6.8693    14.0801 H            1 CPS604   0.0000
    53 H24        -59.3867    -8.3943    14.8152 H            1 CPS604   0.0000
    54 H25        -60.8560    -9.0698    14.5885 H            1 CPS604   0.0000
    55 H26        -60.0627    -9.9865    16.5063 H            1 CPS604   0.0000
    56 H27        -62.2786    -9.4948    16.8150 H            1 CPS604   0.0000
    57 H28        -61.5433    -6.8537    17.6342 H            1 CPS604   0.0000
    58 H29        -64.0197   -11.0781    21.4575 H            1 CPS604   0.0000
    59 H30        -65.1967    -9.6592    22.9416 H            1 CPS604   0.0000
    60 H31        -64.0729    -8.4949    22.7223 H            1 CPS604   0.0000
    61 H32        -65.0315    -8.9486    21.4806 H            1 CPS604   0.0000
    62 H33        -62.1281   -11.5413    22.8490 H            1 CPS604   0.0000
    63 H34        -63.5154   -11.3709    23.6934 H            1 CPS604   0.0000
    64 H35        -62.8745    -9.2340    24.3941 H            1 CPS604   0.0000
    65 H36        -61.5383    -9.2960    23.4574 H            1 CPS604   0.0000
    66 H37        -59.5639   -11.1771    25.6251 H            1 CPS604   0.0000
    67 H38        -59.7477   -10.6162    23.9967 H            1 CPS604   0.0000
    68 H39        -60.0018    -2.7217    16.0014 H            1 CPS604   0.0000
    69 H40        -58.9155    -9.0367    18.0320 H            1 CPS604   0.0000
    70 H41        -62.8749    -6.9258    21.1381 H            1 CPS604   0.0000
@<TRIPOS>BOND
     1    1    2       1
     2    1   12       1
     3    2   11       1
     4    2   15       1
     5    2   19       1
     6    3    4       1
     7    3   19       1
     8    4    5       1
     9    4   29       1
    10    5    6       1
    11    5    9       1
    12    5   10       1
    13    6    7       1
    14    6   18       1
    15    7    8       1
    16    8    9       1
    17    9   20       1
    18   12   13       1
    19   13   14       1
    20   13   27       1
    21   14   15       1
    22   15   16       1
    23   16   17       1
    24   17   18       1
    25   17   28       1
    26   18   19       1
    27   20   21       1
    28   20   22       1
    29   22   23       1
    30   23   24       1
    31   24   25      am
    32   24   26       2
    33    1   30       1
    34    1   31       1
    35    3   32       1
    36    3   33       1
    37    4   34       1
    38    6   35       1
    39    7   36       1
    40    7   37       1
    41    8   38       1
    42    8   39       1
    43    9   40       1
    44   10   41       1
    45   10   42       1
    46   10   43       1
    47   11   44       1
    48   11   45       1
    49   11   46       1
    50   12   47       1
    51   12   48       1
    52   13   49       1
    53   14   50       1
    54   14   51       1
    55   15   52       1
    56   16   53       1
    57   16   54       1
    58   17   55       1
    59   18   56       1
    60   19   57       1
    61   20   58       1
    62   21   59       1
    63   21   60       1
    64   21   61       1
    65   22   62       1
    66   22   63       1
    67   23   64       1
    68   23   65       1
    69   25   66       1
    70   25   67       1
    71   27   68       1
    72   28   69       1
    73   29   70       1
@<TRIPOS>SUBSTRUCTURE
     1 CPS604      1 GROUP             4 A     CPS     0 **** CPS A 604
