@<TRIPOS>MOLECULE
2pse_IMD_1_ligand
   10    10     1     0     0
SMALL
NO_CHARGES


@<TRIPOS>ATOM
     1 N1          63.2000    -0.6120     6.8410 N.2          1 IMD320   1.0000
     2 C2          63.3380    -0.4550     5.4980 C.2          1 IMD320   0.0000
     3 N3          64.6570    -0.4460     5.2000 N.pl3        1 IMD320   0.0000
     4 C4          65.3510    -0.6070     6.3500 C.2          1 IMD320   0.0000
     5 C5          64.4310    -0.7070     7.3920 C.2          1 IMD320   0.0000
     6 H1          62.3332    -0.6508     7.3382 H            1 IMD320   0.0000
     7 H2          62.5900    -0.3618     4.8409 H            1 IMD320   0.0000
     8 H3          66.3464    -0.6471     6.4369 H            1 IMD320   0.0000
     9 H4          64.6413    -0.8263     8.3623 H            1 IMD320   0.0000
    10 H5          65.0513    -0.3388     4.2873 H            1 IMD320   0.0000
@<TRIPOS>BOND
     1    1    2       2
     2    1    5       1
     3    2    3       1
     4    3    4       1
     5    4    5       2
     6    1    6       1
     7    2    7       1
     8    4    8       1
     9    5    9       1
    10    3   10       1
@<TRIPOS>SUBSTRUCTURE
     1 IMD320      1 GROUP             4 A     IMD     0 **** IMD A 320
