@<TRIPOS>MOLECULE
1o51_ADP_1_ligand
   39    41     1     0     0
SMALL
NO_CHARGES


@<TRIPOS>ATOM
     1 PB          32.4950     9.1710     6.9090 P.3          1 ADP200   0.0000
     2 O1B         31.6900     7.9820     7.3160 O.co2        1 ADP200   0.0000
     3 O2B         31.4970    10.3210     7.3030 O.co2        1 ADP200  -1.0000
     4 O3B         32.9360     9.2950     5.4410 O.co2        1 ADP200  -1.0000
     5 PA          35.2560     9.4050     8.1520 P.3          1 ADP200   0.0000
     6 O1A         35.5660    10.7730     8.5070 O.co2        1 ADP200   0.0000
     7 O2A         35.5780     8.5770     9.3830 O.co2        1 ADP200  -1.0000
     8 O3A         33.7150     9.5330     7.8750 O.3          1 ADP200   0.0000
     9 O5'         36.3250     9.0470     7.0160 O.3          1 ADP200   0.0000
    10 C5'         36.6200     9.7900     5.8840 C.3          1 ADP200   0.0000
    11 C4'         36.8500     8.7690     4.8070 C.3          1 ADP200   0.0000
    12 O4'         38.0100     8.0530     5.1870 O.3          1 ADP200   0.0000
    13 C3'         35.8060     7.6770     4.6080 C.3          1 ADP200   0.0000
    14 O3'         34.6420     8.0410     3.9130 O.3          1 ADP200   0.0000
    15 C2'         36.6620     6.6720     3.8870 C.3          1 ADP200   0.0000
    16 O2'         36.8190     6.9480     2.5310 O.3          1 ADP200   0.0000
    17 C1'         38.0220     6.7760     4.5640 C.3          1 ADP200   0.0000
    18 N9          38.1670     5.7230     5.5640 N.pl3        1 ADP200   0.0000
    19 C8          37.9000     5.8160     6.9290 C.2          1 ADP200   0.0000
    20 N7          38.1520     4.6470     7.5730 N.2          1 ADP200   0.0000
    21 C5          38.5560     3.8120     6.5910 C.ar         1 ADP200   0.0000
    22 C6          38.9410     2.4910     6.6520 C.ar         1 ADP200   0.0000
    23 N6          38.9330     1.8170     7.8220 N.pl3        1 ADP200   0.0000
    24 N1          39.3150     1.9280     5.4430 N.ar         1 ADP200   0.0000
    25 C2          39.3210     2.5870     4.2430 C.ar         1 ADP200   0.0000
    26 N3          38.9370     3.9060     4.1610 N.ar         1 ADP200   0.0000
    27 C4          38.5650     4.4880     5.3290 C.ar         1 ADP200   0.0000
    28 H5'1        37.4416    10.3415     6.0284 H            1 ADP200   0.0000
    29 H5'2        35.8548    10.3880     5.6454 H            1 ADP200   0.0000
    30 H4'         37.0156     9.2339     3.9373 H            1 ADP200   0.0000
    31 H3'         35.5495     7.3055     5.5003 H            1 ADP200   0.0000
    32 H5          33.9560     8.3708     4.5615 H            1 ADP200   0.0000
    33 H2'         36.2878     5.7527     4.0087 H            1 ADP200   0.0000
    34 H7          37.3954     6.2461     2.1125 H            1 ADP200   0.0000
    35 H1'         38.7565     6.7218     3.8875 H            1 ADP200   0.0000
    36 H9          37.5637     6.6431     7.3794 H            1 ADP200   0.0000
    37 H10         39.2156     0.8581     7.8486 H            1 ADP200   0.0000
    38 H11         38.6444     2.2767     8.6619 H            1 ADP200   0.0000
    39 H12         39.6080     2.1039     3.4158 H            1 ADP200   0.0000
@<TRIPOS>BOND
     1    1    2      ar
     2    1    3      ar
     3    1    4      ar
     4    1    8       1
     5    5    6      ar
     6    5    7      ar
     7    5    8       1
     8    5    9       1
     9    9   10       1
    10   10   11       1
    11   11   12       1
    12   11   13       1
    13   12   17       1
    14   13   14       1
    15   13   15       1
    16   15   16       1
    17   15   17       1
    18   17   18       1
    19   18   19       1
    20   18   27       1
    21   19   20       2
    22   20   21       1
    23   21   22      ar
    24   21   27      ar
    25   22   23       1
    26   22   24      ar
    27   24   25      ar
    28   25   26      ar
    29   26   27      ar
    30   25   39       1
    31   23   38       1
    32   23   37       1
    33   10   28       1
    34   10   29       1
    35   11   30       1
    36   13   31       1
    37   14   32       1
    38   15   33       1
    39   16   34       1
    40   17   35       1
    41   19   36       1
@<TRIPOS>SUBSTRUCTURE
     1 ADP200      1 GROUP             4 A     ADP     0 **** ADP A 200
