@<TRIPOS>MOLECULE
4h1v_GNP_1_ligand
   45    47     1     0     0
SMALL
NO_CHARGES


@<TRIPOS>ATOM
     1 PG          -9.7920    26.5170   -24.6600 P.3          1 GNP801   0.0000
     2 O1G        -10.8300    27.3020   -25.4240 O.co2        1 GNP801   0.0000
     3 O2G         -8.8810    27.3350   -23.7760 O.co2        1 GNP801  -1.0000
     4 O3G         -9.0980    25.7050   -25.7280 O.co2        1 GNP801  -1.0000
     5 N3B        -10.5590    25.4520   -23.7660 N.3          1 GNP801   0.0000
     6 PB         -10.4940    25.3090   -22.1860 P.3          1 GNP801   0.0000
     7 O1B         -9.5530    26.2440   -21.5300 O.co2        1 GNP801   0.0000
     8 O2B        -11.9020    25.3380   -21.7300 O.co2        1 GNP801  -1.0000
     9 O3A         -9.9800    23.9070   -21.9100 O.3          1 GNP801   0.0000
    10 PA          -8.6920    23.4160   -22.5510 P.3          1 GNP801   0.0000
    11 O1A         -8.3760    22.1070   -21.9380 O.co2        1 GNP801   0.0000
    12 O2A         -8.8010    23.4700   -24.0250 O.co2        1 GNP801  -1.0000
    13 O5'         -7.5430    24.4170   -22.1350 O.3          1 GNP801   0.0000
    14 C5'         -6.5570    24.0000   -21.2020 C.3          1 GNP801   0.0000
    15 C4'         -5.2260    23.7190   -21.8740 C.3          1 GNP801   0.0000
    16 O4'         -4.3070    23.2080   -20.8800 O.3          1 GNP801   0.0000
    17 C3'         -5.2510    22.6710   -22.9790 C.3          1 GNP801   0.0000
    18 O3'         -4.2810    22.9850   -23.9720 O.3          1 GNP801   0.0000
    19 C2'         -4.9120    21.3630   -22.2640 C.3          1 GNP801   0.0000
    20 O2'         -4.0530    20.5470   -23.0370 O.3          1 GNP801   0.0000
    21 C1'         -4.1890    21.8020   -20.9920 C.3          1 GNP801   0.0000
    22 N9          -4.7290    21.1860   -19.7820 N.pl3        1 GNP801   0.0000
    23 C8          -6.0480    21.1140   -19.4030 C.2          1 GNP801   0.0000
    24 N7          -6.2320    20.5010   -18.2670 N.2          1 GNP801   0.0000
    25 C5          -4.9520    20.1430   -17.8630 C.2          1 GNP801   0.0000
    26 C6          -4.5220    19.4550   -16.7030 C.2          1 GNP801   0.0000
    27 O6          -5.2130    19.0120   -15.7740 O.2          1 GNP801   0.0000
    28 N1          -3.1380    19.2980   -16.6820 N.pl3        1 GNP801   0.0000
    29 C2          -2.2800    19.7500   -17.6580 C.2          1 GNP801   0.0000
    30 N2          -0.9750    19.5070   -17.4650 N.pl3        1 GNP801   0.0000
    31 N3          -2.6710    20.3960   -18.7490 N.2          1 GNP801   0.0000
    32 C4          -4.0160    20.5570   -18.7850 C.2          1 GNP801   0.0000
    33 H3B        -10.2677    24.5624   -24.1177 H            1 GNP801   0.0000
    34 H5'1        -6.8727    23.1665   -20.7486 H            1 GNP801   0.0000
    35 H5'2        -6.4298    24.7218   -20.5216 H            1 GNP801   0.0000
    36 H4'         -4.8620    24.5735   -22.2445 H            1 GNP801   0.0000
    37 H3'         -6.1622    22.6180   -23.3875 H            1 GNP801   0.0000
    38 H6          -3.6230    22.2354   -24.0440 H            1 GNP801   0.0000
    39 H2'         -5.7488    20.8661   -22.0339 H            1 GNP801   0.0000
    40 H8          -4.5016    19.6728   -23.2227 H            1 GNP801   0.0000
    41 H1'         -3.2210    21.5640   -21.0717 H            1 GNP801   0.0000
    42 H10         -6.7956    21.4955   -19.9467 H            1 GNP801   0.0000
    43 H11         -2.7383    18.8212   -15.8991 H            1 GNP801   0.0000
    44 H12         -0.3043    19.8121   -18.1410 H            1 GNP801   0.0000
    45 H13         -0.6729    19.0207   -16.6451 H            1 GNP801   0.0000
@<TRIPOS>BOND
     1    1    2      ar
     2    1    3      ar
     3    1    4      ar
     4    1    5       1
     5    5    6       1
     6    6    7      ar
     7    6    8      ar
     8    6    9       1
     9    9   10       1
    10   10   11      ar
    11   10   12      ar
    12   10   13       1
    13   13   14       1
    14   14   15       1
    15   15   16       1
    16   15   17       1
    17   16   21       1
    18   17   18       1
    19   17   19       1
    20   19   20       1
    21   19   21       1
    22   21   22       1
    23   22   23       1
    24   22   32       1
    25   23   24       2
    26   24   25       1
    27   25   26       1
    28   25   32       2
    29   26   27       2
    30   26   28       1
    31   28   29       1
    32   29   30       1
    33   29   31       2
    34   31   32       1
    35   30   45       1
    36   30   44       1
    37    5   33       1
    38   28   43       1
    39   23   42       1
    40   14   34       1
    41   14   35       1
    42   15   36       1
    43   17   37       1
    44   18   38       1
    45   19   39       1
    46   20   40       1
    47   21   41       1
@<TRIPOS>SUBSTRUCTURE
     1 GNP801      1 GROUP             4 A     GNP     0 **** GNP A 801
