@<TRIPOS>MOLECULE
3kp0_Z98_2_ligand
   42    42     1     0     0
SMALL
NO_CHARGES


@<TRIPOS>ATOM
     1 C           -8.3580    97.5660    29.5370 C.2          1 Z98767   0.0000
     2 N           -7.5310    95.6250    28.4710 N.4          1 Z98767   1.0000
     3 O           -9.2700    98.4100    29.5480 O.co2        1 Z98767   0.0000
     4 P           -7.3190   101.6100    20.1970 P.3          1 Z98767   0.0000
     5 N1          -6.4390    96.3530    21.0910 N.ar         1 Z98767   0.0000
     6 C2          -7.1820    95.5040    22.0480 C.ar         1 Z98767   0.0000
     7 C3          -8.1080    96.1160    23.0130 C.ar         1 Z98767   0.0000
     8 O3          -8.7530    95.2540    23.8850 O.3          1 Z98767   0.0000
     9 C4          -8.3010    97.6050    23.0170 C.ar         1 Z98767   0.0000
    10 C5          -7.5280    98.4400    22.0290 C.ar         1 Z98767   0.0000
    11 C6          -6.6130    97.8470    21.0810 C.ar         1 Z98767   0.0000
    12 CA          -8.0280    96.9710    28.2440 C.3          1 Z98767   0.0000
    13 CB          -9.2570    97.2040    27.3430 C.3          1 Z98767   0.0000
    14 ND         -10.0460    97.6070    24.9180 N.4          1 Z98767   1.0000
    15 CG          -9.1220    96.9270    25.8670 C.3          1 Z98767   0.0000
    16 C2A         -7.0150    93.9980    22.0710 C.3          1 Z98767   0.0000
    17 C4A         -9.2250    98.3250    23.9520 C.3          1 Z98767   0.0000
    18 C5A         -7.7400    99.9470    22.0520 C.3          1 Z98767   0.0000
    19 OP1         -6.9660   100.7470    18.9150 O.co2        1 Z98767   0.0000
    20 OP2         -6.5200   102.9280    20.1250 O.co2        1 Z98767  -1.0000
    21 OP3         -8.8070   101.9740    20.3480 O.co2        1 Z98767  -1.0000
    22 OP4         -6.8090   100.7190    21.3490 O.3          1 Z98767   0.0000
    23 OXT         -8.0740    96.7100    30.5970 O.co2        1 Z98767  -1.0000
    24 H1          -8.1190    94.9685    27.9986 H            1 Z98767   0.0000
    25 H2          -6.5980    95.5504    28.1190 H            1 Z98767   0.0000
    26 H3          -8.5778    94.2706    23.8370 H            1 Z98767   0.0000
    27 H4          -6.1071    98.4166    20.4332 H            1 Z98767   0.0000
    28 HA          -7.2741    97.5028    27.8582 H            1 Z98767   0.0000
    29 HB1         -9.5191    98.1640    27.4416 H            1 Z98767   0.0000
    30 HB2         -9.9923    96.6206    27.6880 H            1 Z98767   0.0000
    31 HD1        -10.6326    98.2486    25.4122 H            1 Z98767   0.0000
    32 HG1         -9.2448    95.9426    25.7411 H            1 Z98767   0.0000
    33 HG2         -8.1917    97.1831    25.6046 H            1 Z98767   0.0000
    34 H2A1        -7.5986    93.6088    22.7837 H            1 Z98767   0.0000
    35 H2A2        -7.2764    93.6200    21.1828 H            1 Z98767   0.0000
    36 H2A3        -6.0598    93.7714    22.2616 H            1 Z98767   0.0000
    37 H4A1        -9.8565    98.8462    23.3779 H            1 Z98767   0.0000
    38 H4A2        -8.6562    98.9559    24.4797 H            1 Z98767   0.0000
    39 H5A1        -7.7199   100.2421    23.0073 H            1 Z98767   0.0000
    40 H5A2        -8.6430   100.1327    21.6647 H            1 Z98767   0.0000
    41 H18         -7.5339    95.4296    29.4517 H            1 Z98767   0.0000
    42 HD2        -10.6133    96.9302    24.4488 H            1 Z98767   0.0000
@<TRIPOS>BOND
     1    1    3      ar
     2    1   12       1
     3    1   23      ar
     4    2   12       1
     5    4   19      ar
     6    4   20      ar
     7    4   21      ar
     8    4   22       1
     9    5    6      ar
    10    5   11      ar
    11    6    7      ar
    12    6   16       1
    13    7    8       1
    14    7    9      ar
    15    9   10      ar
    16    9   17       1
    17   10   11      ar
    18   10   18       1
    19   12   13       1
    20   13   15       1
    21   14   15       1
    22   14   17       1
    23   18   22       1
    24    2   24       1
    25    2   25       1
    26    2   41       1
    27    8   26       1
    28   11   27       1
    29   12   28       1
    30   13   29       1
    31   13   30       1
    32   14   31       1
    33   15   32       1
    34   15   33       1
    35   16   34       1
    36   16   35       1
    37   16   36       1
    38   17   37       1
    39   17   38       1
    40   18   39       1
    41   18   40       1
    42   14   42       1
@<TRIPOS>SUBSTRUCTURE
     1 Z98767      1 GROUP             4 A     Z98     0 **** Z98 A 767
