@<TRIPOS>MOLECULE
1bxr_ANP_1_ligand
   44    46     1     0     0
SMALL
NO_CHARGES


@<TRIPOS>ATOM
     1 PG          20.7420    29.4160    71.6650 P.3          1 ANP1083   0.0000
     2 O1G         21.5970    29.0350    70.4450 O.co2        1 ANP1083   0.0000
     3 O2G         21.4680    30.4410    72.4470 O.co2        1 ANP1083  -1.0000
     4 O3G         20.5270    28.1650    72.6600 O.co2        1 ANP1083  -1.0000
     5 PB          17.9740    29.1110    70.7120 P.3          1 ANP1083   0.0000
     6 O1B         18.3140    28.3020    69.4830 O.co2        1 ANP1083   0.0000
     7 O2B         17.4090    28.2610    71.8170 O.co2        1 ANP1083  -1.0000
     8 N3B         19.2880    29.9350    71.2370 N.3          1 ANP1083   0.0000
     9 PA          16.2510    31.3200    71.0760 P.3          1 ANP1083   0.0000
    10 O1A         15.2010    30.8060    72.0270 O.co2        1 ANP1083   0.0000
    11 O2A         17.3890    31.9090    71.8580 O.co2        1 ANP1083  -1.0000
    12 O3A         16.8310    30.1010    70.2470 O.3          1 ANP1083   0.0000
    13 O5'         15.6130    32.4080    70.0710 O.3          1 ANP1083   0.0000
    14 C5'         16.4020    32.8080    68.9130 C.3          1 ANP1083   0.0000
    15 C4'         16.2000    34.2750    68.5030 C.3          1 ANP1083   0.0000
    16 O4'         14.8860    34.4730    67.9180 O.3          1 ANP1083   0.0000
    17 C3'         16.3140    35.3230    69.6070 C.3          1 ANP1083   0.0000
    18 O3'         17.6850    35.6840    69.8610 O.3          1 ANP1083   0.0000
    19 C2'         15.3520    36.4310    69.1340 C.3          1 ANP1083   0.0000
    20 O2'         16.0400    37.5370    68.5280 O.3          1 ANP1083   0.0000
    21 C1'         14.4090    35.7560    68.1460 C.3          1 ANP1083   0.0000
    22 N9          13.0470    35.6550    68.6980 N.pl3        1 ANP1083   0.0000
    23 C8          12.5860    34.7950    69.6380 C.2          1 ANP1083   0.0000
    24 N7          11.2790    34.9230    69.8850 N.2          1 ANP1083   0.0000
    25 C5          10.8660    35.9480    69.0720 C.ar         1 ANP1083   0.0000
    26 C6           9.5790    36.5350    68.9260 C.ar         1 ANP1083   0.0000
    27 N6           8.5250    36.2230    69.5420 N.pl3        1 ANP1083   0.0000
    28 N1           9.6240    37.5490    68.0120 N.ar         1 ANP1083   0.0000
    29 C2          10.7340    37.9740    67.3150 C.ar         1 ANP1083   0.0000
    30 N3          11.9220    37.4480    67.4500 N.ar         1 ANP1083   0.0000
    31 C4          11.9430    36.4300    68.3430 C.ar         1 ANP1083   0.0000
    32 H3B         18.9591    30.4242    72.0448 H            1 ANP1083   0.0000
    33 H5'1        16.1460    32.2265    68.1408 H            1 ANP1083   0.0000
    34 H5'2        17.3690    32.6707    69.1275 H            1 ANP1083   0.0000
    35 H4'         16.8811    34.4929    67.8040 H            1 ANP1083   0.0000
    36 H3'         15.9395    34.9280    70.4459 H            1 ANP1083   0.0000
    37 H6          17.7199    36.3702    70.5876 H            1 ANP1083   0.0000
    38 H2'         14.8244    36.7624    69.9161 H            1 ANP1083   0.0000
    39 H8          16.2680    38.2124    69.2293 H            1 ANP1083   0.0000
    40 H1'         14.3910    36.2695    67.2881 H            1 ANP1083   0.0000
    41 H10         13.1684    34.1280    70.1027 H            1 ANP1083   0.0000
    42 H11          7.6726    36.7108    69.3534 H            1 ANP1083   0.0000
    43 H12          8.5409    35.4876    70.2195 H            1 ANP1083   0.0000
    44 H13         10.6237    38.7288    66.6684 H            1 ANP1083   0.0000
@<TRIPOS>BOND
     1    1    2      ar
     2    1    3      ar
     3    1    4      ar
     4    1    8       1
     5    5    6      ar
     6    5    7      ar
     7    5    8       1
     8    5   12       1
     9    9   10      ar
    10    9   11      ar
    11    9   12       1
    12    9   13       1
    13   13   14       1
    14   14   15       1
    15   15   16       1
    16   15   17       1
    17   16   21       1
    18   17   18       1
    19   17   19       1
    20   19   20       1
    21   19   21       1
    22   21   22       1
    23   22   23       1
    24   22   31       1
    25   23   24       2
    26   24   25       1
    27   25   26      ar
    28   25   31      ar
    29   26   27       1
    30   26   28      ar
    31   28   29      ar
    32   29   30      ar
    33   30   31      ar
    34   29   44       1
    35   27   43       1
    36   27   42       1
    37    8   32       1
    38   23   41       1
    39   14   33       1
    40   14   34       1
    41   15   35       1
    42   17   36       1
    43   18   37       1
    44   19   38       1
    45   20   39       1
    46   21   40       1
@<TRIPOS>SUBSTRUCTURE
     1 ANP1083     1 GROUP             4 A     ANP     0 **** ANP A1083
