@<TRIPOS>MOLECULE
1arz_PDC_1_ligand
   15    15     1     0     0
SMALL
NO_CHARGES


@<TRIPOS>ATOM
     1 N1          46.3500    52.8600    18.6780 N.ar         1 PDC303   0.0000
     2 C2          46.7990    52.7460    20.0160 C.ar         1 PDC303   0.0000
     3 C3          46.7410    51.5270    20.6980 C.ar         1 PDC303   0.0000
     4 C4          46.2350    50.3770    20.0480 C.ar         1 PDC303   0.0000
     5 C5          45.7810    50.4630    18.7190 C.ar         1 PDC303   0.0000
     6 C6          45.8410    51.6990    18.0440 C.ar         1 PDC303   0.0000
     7 C7          47.2940    53.8430    20.5990 C.2          1 PDC303   0.0000
     8 O1          47.6530    53.8130    21.9070 O.co2        1 PDC303   0.0000
     9 O2          47.3960    54.9680    19.8810 O.co2        1 PDC303  -1.0000
    10 C8          45.4000    51.8180    16.7730 C.2          1 PDC303   0.0000
    11 O3          45.0420    50.6870    16.0890 O.co2        1 PDC303   0.0000
    12 O4          45.3730    53.0550    16.1850 O.co2        1 PDC303  -1.0000
    13 H1          47.0571    51.4680    21.6449 H            1 PDC303   0.0000
    14 H2          46.2000    49.5031    20.5329 H            1 PDC303   0.0000
    15 H3          45.4186    49.6536    18.2569 H            1 PDC303   0.0000
@<TRIPOS>BOND
     1    1    2      ar
     2    1    6      ar
     3    2    3      ar
     4    2    7       1
     5    3    4      ar
     6    4    5      ar
     7    5    6      ar
     8    6   10       1
     9    7    8      ar
    10    7    9      ar
    11   10   11      ar
    12   10   12      ar
    13    3   13       1
    14    4   14       1
    15    5   15       1
@<TRIPOS>SUBSTRUCTURE
     1 PDC303      1 GROUP             4 B     PDC     0 **** PDC B 303
