@<TRIPOS>MOLECULE
4k4o_DOO_1_ligand
   56    61     1     0     0
SMALL
NO_CHARGES


@<TRIPOS>ATOM
     1 F30         10.1500    -1.2810    10.2870 F            1 DOO301   0.0000
     2 C6          10.8940    -2.1540    10.9870 C.ar         1 DOO301   0.0000
     3 C1          12.2350    -2.2990    10.6100 C.ar         1 DOO301   0.0000
     4 C5          10.2770    -2.8850    12.0080 C.ar         1 DOO301   0.0000
     5 C4          11.0740    -3.8030    12.6800 C.ar         1 DOO301   0.0000
     6 C7          10.8410    -4.7380    13.7790 C.ar         1 DOO301   0.0000
     7 C13          9.7050    -5.1710    14.6220 C.ar         1 DOO301   0.0000
     8 N22          8.4540    -4.6020    14.7160 N.pl3        1 DOO301   0.0000
     9 C26          7.3740    -5.1940    15.5000 C.3          1 DOO301   0.0000
    10 C25          7.0490    -4.0050    16.4180 C.3          1 DOO301   0.0000
    11 C27          7.7090    -4.0470    17.8050 C.3          1 DOO301   0.0000
    12 C28          8.2600    -2.6500    18.0630 C.3          1 DOO301   0.0000
    13 N29          8.5150    -2.1670    16.7220 N.4          1 DOO301   1.0000
    14 C24          7.6020    -2.7590    15.7470 C.3          1 DOO301   0.0000
    15 C23          8.2430    -3.1960    14.4240 C.3          1 DOO301   0.0000
    16 N12          9.9670    -6.1370    15.5200 N.ar         1 DOO301   0.0000
    17 C11         11.1850    -6.6990    15.6350 C.ar         1 DOO301   0.0000
    18 N10         12.2490    -6.3760    14.9000 N.ar         1 DOO301   0.0000
    19 C8          12.1180    -5.4330    13.9720 C.ar         1 DOO301   0.0000
    20 N9          13.0250    -4.9380    13.1260 N.pl3        1 DOO301   0.0000
    21 C3          12.4810    -4.0040    12.3220 C.ar         1 DOO301   0.0000
    22 C2          13.0680    -3.2140    11.2470 C.ar         1 DOO301   0.0000
    23 N31         14.3640    -3.4510    10.9630 N.pl3        1 DOO301   0.0000
    24 C32         15.0220    -2.8670     9.8120 C.3          1 DOO301   0.0000
    25 O14         11.3950    -7.7090    16.5000 O.3          1 DOO301   0.0000
    26 C15         10.4190    -8.3010    17.2530 C.ar         1 DOO301   0.0000
    27 C20         10.2150    -9.6730    17.1950 C.ar         1 DOO301   0.0000
    28 N19          9.2840   -10.2120    17.9940 N.ar         1 DOO301   0.0000
    29 C18          8.5410    -9.4330    18.8110 C.ar         1 DOO301   0.0000
    30 C21          7.4900   -10.0690    19.6860 C.3          1 DOO301   0.0000
    31 N17          8.7230    -8.0970    18.8710 N.ar         1 DOO301   0.0000
    32 C16          9.6600    -7.5190    18.1110 C.ar         1 DOO301   0.0000
    33 H1          12.6006    -1.7348     9.8697 H            1 DOO301   0.0000
    34 H2           9.3136    -2.7536    12.2415 H            1 DOO301   0.0000
    35 H3           7.6825    -5.9920    16.0177 H            1 DOO301   0.0000
    36 H4           6.5939    -5.4486    14.9285 H            1 DOO301   0.0000
    37 H5           6.0578    -3.9201    16.5199 H            1 DOO301   0.0000
    38 H6           8.4502    -4.7182    17.8149 H            1 DOO301   0.0000
    39 H7           7.0333    -4.2863    18.5022 H            1 DOO301   0.0000
    40 H8           9.1021    -2.6864    18.6011 H            1 DOO301   0.0000
    41 H9           7.5886    -2.0769    18.5329 H            1 DOO301   0.0000
    42 H10          9.4540    -2.3988    16.4680 H            1 DOO301   0.0000
    43 H11          6.8545    -2.1214    15.5605 H            1 DOO301   0.0000
    44 H12          7.6256    -3.0642    13.6484 H            1 DOO301   0.0000
    45 H13          9.1037    -2.7175    14.2500 H            1 DOO301   0.0000
    46 H14         13.9829    -5.2234    13.0936 H            1 DOO301   0.0000
    47 H15         14.8892    -4.0502    11.5672 H            1 DOO301   0.0000
    48 H16         15.9752    -3.1682     9.7845 H            1 DOO301   0.0000
    49 H17         14.5557    -3.1599     8.9773 H            1 DOO301   0.0000
    50 H18         14.9893    -1.8698     9.8797 H            1 DOO301   0.0000
    51 H19         10.7495   -10.2447    16.5725 H            1 DOO301   0.0000
    52 H20          7.0329    -9.3619    20.2255 H            1 DOO301   0.0000
    53 H21          6.8179   -10.5375    19.1127 H            1 DOO301   0.0000
    54 H22          7.9224   -10.7293    20.3000 H            1 DOO301   0.0000
    55 H23          9.8118    -6.5319    18.1611 H            1 DOO301   0.0000
    56 H24          8.4018    -1.1735    16.7092 H            1 DOO301   0.0000
@<TRIPOS>BOND
     1    1    2       1
     2    2    3      ar
     3    2    4      ar
     4    3   22      ar
     5    4    5      ar
     6    5    6       1
     7    5   21      ar
     8    6    7      ar
     9    6   19      ar
    10    7    8       1
    11    7   16      ar
    12    8    9       1
    13    8   15       1
    14    9   10       1
    15   10   11       1
    16   10   14       1
    17   11   12       1
    18   12   13       1
    19   13   14       1
    20   14   15       1
    21   16   17      ar
    22   17   18      ar
    23   17   25       1
    24   18   19      ar
    25   19   20       1
    26   20   21       1
    27   21   22      ar
    28   22   23       1
    29   23   24       1
    30   25   26       1
    31   26   27      ar
    32   26   32      ar
    33   27   28      ar
    34   28   29      ar
    35   29   30       1
    36   29   31      ar
    37   31   32      ar
    38    3   33       1
    39    4   34       1
    40    9   35       1
    41    9   36       1
    42   10   37       1
    43   11   38       1
    44   11   39       1
    45   12   40       1
    46   12   41       1
    47   13   42       1
    48   14   43       1
    49   15   44       1
    50   15   45       1
    51   20   46       1
    52   23   47       1
    53   24   48       1
    54   24   49       1
    55   24   50       1
    56   27   51       1
    57   30   52       1
    58   30   53       1
    59   30   54       1
    60   32   55       1
    61   13   56       1
@<TRIPOS>SUBSTRUCTURE
     1 DOO301      1 GROUP             4 A     DOO     0 **** DOO A 301
