@<TRIPOS>MOLECULE
2hay_FMN_1_ligand
   50    52     1     0     0
SMALL
NO_CHARGES


@<TRIPOS>ATOM
     1 N1          63.7400    28.7080    65.4600 N.2          1 FMN702   0.0000
     2 C2          63.9510    27.3710    65.1340 C.2          1 FMN702   0.0000
     3 O2          64.9910    26.7800    65.4660 O.2          1 FMN702   0.0000
     4 N3          63.0050    26.6660    64.4140 N.pl3        1 FMN702   0.0000
     5 C4          61.8250    27.2480    63.9750 C.2          1 FMN702   0.0000
     6 O4          61.3010    26.8120    62.9390 O.2          1 FMN702   0.0000
     7 C4A         61.5910    28.5950    64.3070 C.2          1 FMN702   0.0000
     8 N5          60.4020    29.2090    63.8680 N.2          1 FMN702   0.0000
     9 C5A         60.1050    30.5330    64.2020 C.ar         1 FMN702   0.0000
    10 C6          58.8980    31.0950    63.8030 C.ar         1 FMN702   0.0000
    11 C7          58.5790    32.4150    64.1130 C.ar         1 FMN702   0.0000
    12 C7M         57.1070    32.7600    64.2190 C.3          1 FMN702   0.0000
    13 C8          59.5150    33.1750    64.8430 C.ar         1 FMN702   0.0000
    14 C8M         59.0040    34.3010    65.6870 C.3          1 FMN702   0.0000
    15 C9          60.7380    32.6090    65.2370 C.ar         1 FMN702   0.0000
    16 C9A         61.0400    31.2780    64.9370 C.ar         1 FMN702   0.0000
    17 N10         62.2510    30.6760    65.3640 N.pl3        1 FMN702   0.0000
    18 C10         62.5430    29.3310    65.0580 C.2          1 FMN702   0.0000
    19 C1'         63.3240    31.5540    65.9440 C.3          1 FMN702   0.0000
    20 C2'         63.9470    32.5310    64.9310 C.3          1 FMN702   0.0000
    21 O2'         64.8820    31.8770    64.0850 O.3          1 FMN702   0.0000
    22 C3'         64.6180    33.6430    65.7420 C.3          1 FMN702   0.0000
    23 O3'         63.5770    34.3340    66.3870 O.3          1 FMN702   0.0000
    24 C4'         65.4980    34.6470    64.9790 C.3          1 FMN702   0.0000
    25 O4'         66.6800    34.0380    64.4870 O.3          1 FMN702   0.0000
    26 C5'         65.8280    35.8460    65.8890 C.3          1 FMN702   0.0000
    27 O5'         66.7270    35.5150    66.9490 O.3          1 FMN702   0.0000
    28 P           66.3550    35.4540    68.5300 P.3          1 FMN702   0.0000
    29 O1P         67.1040    34.2990    69.1370 O.co2        1 FMN702   0.0000
    30 O2P         64.8850    35.2950    68.8010 O.co2        1 FMN702  -1.0000
    31 O3P         66.8060    36.7030    69.1930 O.co2        1 FMN702  -1.0000
    32 H1          63.1771    25.7039    64.2024 H            1 FMN702   0.0000
    33 H2          58.2467    30.5416    63.2839 H            1 FMN702   0.0000
    34 H7M1        57.0072    33.7292    64.4442 H            1 FMN702   0.0000
    35 H7M2        56.6570    32.5726    63.3459 H            1 FMN702   0.0000
    36 H7M3        56.6856    32.2059    64.9369 H            1 FMN702   0.0000
    37 H8M1        59.7717    34.7495    66.1447 H            1 FMN702   0.0000
    38 H8M2        58.5287    34.9629    65.1074 H            1 FMN702   0.0000
    39 H8M3        58.3703    33.9427    66.3726 H            1 FMN702   0.0000
    40 H9          61.4009    33.1650    65.7383 H            1 FMN702   0.0000
    41 H1'1        64.0501    30.9678    66.3034 H            1 FMN702   0.0000
    42 H1'2        62.9254    32.0866    66.6906 H            1 FMN702   0.0000
    43 H2'         63.2205    32.9281    64.3702 H            1 FMN702   0.0000
    44 H13         65.5901    32.5258    63.8064 H            1 FMN702   0.0000
    45 H3'         65.1829    33.2120    66.4456 H            1 FMN702   0.0000
    46 H15         63.9113    34.7088    67.2517 H            1 FMN702   0.0000
    47 H4'         64.9751    34.9859    64.1969 H            1 FMN702   0.0000
    48 H17         66.9675    34.4985    63.6472 H            1 FMN702   0.0000
    49 H5'1        64.9766    36.1861    66.2884 H            1 FMN702   0.0000
    50 H5'2        66.2445    36.5638    65.3310 H            1 FMN702   0.0000
@<TRIPOS>BOND
     1    1    2       1
     2    1   18       2
     3    2    3       2
     4    2    4       1
     5    4    5       1
     6    5    6       2
     7    5    7       1
     8    7    8       2
     9    7   18       1
    10    8    9       1
    11    9   10      ar
    12    9   16      ar
    13   10   11      ar
    14   11   12       1
    15   11   13      ar
    16   13   14       1
    17   13   15      ar
    18   15   16      ar
    19   16   17       1
    20   17   18       1
    21   17   19       1
    22   19   20       1
    23   20   21       1
    24   20   22       1
    25   22   23       1
    26   22   24       1
    27   24   25       1
    28   24   26       1
    29   26   27       1
    30   27   28       1
    31   28   29      ar
    32   28   30      ar
    33   28   31      ar
    34    4   32       1
    35   10   33       1
    36   12   34       1
    37   12   35       1
    38   12   36       1
    39   14   37       1
    40   14   38       1
    41   14   39       1
    42   15   40       1
    43   19   41       1
    44   19   42       1
    45   20   43       1
    46   21   44       1
    47   22   45       1
    48   23   46       1
    49   24   47       1
    50   25   48       1
    51   26   49       1
    52   26   50       1
@<TRIPOS>SUBSTRUCTURE
     1 FMN702      1 GROUP             4 A     FMN     0 **** FMN A 702
