@<TRIPOS>MOLECULE
2kaw_SUZ_1_ligand
   41    43     1     0     0
SMALL
NO_CHARGES


@<TRIPOS>ATOM
     1 C20          3.2420    -3.7530    -8.5550 C.ar         1 SUZ91    0.0000
     2 C19          2.1680    -2.8740    -8.5960 C.ar         1 SUZ91    0.0000
     3 C5           1.1080    -3.0720    -9.5400 C.ar         1 SUZ91    0.0000
     4 C6          -0.2430    -2.4390    -9.2670 C.3          1 SUZ91    0.0000
     5 C7          -1.0920    -2.7980    -8.1220 C.2          1 SUZ91    0.0000
     6 C18         -0.7090    -3.8660    -7.0680 C.2          1 SUZ91    0.0000
     7 C17          0.3390    -4.7990    -6.9020 C.2          1 SUZ91    0.0000
     8 C16          0.3390    -5.5940    -5.8080 C.2          1 SUZ91    0.0000
     9 C15         -0.6770    -5.5080    -4.8480 C.2          1 SUZ91    0.0000
    10 F           -0.6430    -6.3150    -3.7770 F            1 SUZ91    0.0000
    11 C14         -1.7160    -4.6030    -4.9960 C.2          1 SUZ91    0.0000
    12 C13         -1.7230    -3.7950    -6.0980 C.2          1 SUZ91    0.0000
    13 C10         -2.7070    -2.7140    -6.5400 C.2          1 SUZ91    0.0000
    14 C11         -3.8850    -2.3260    -5.5870 C.3          1 SUZ91    0.0000
    15 C12         -5.2500    -2.4510    -6.2570 C.2          1 SUZ91    0.0000
    16 O3          -5.5080    -1.7020    -7.3170 O.co2        1 SUZ91    0.0000
    17 O2          -6.1260    -3.2140    -5.8220 O.co2        1 SUZ91   -1.0000
    18 C8          -2.3630    -2.1310    -7.7110 C.2          1 SUZ91    0.0000
    19 C9          -3.1020    -1.0600    -8.4160 C.2          1 SUZ91    0.0000
    20 C4           1.1700    -4.1550   -10.4010 C.ar         1 SUZ91    0.0000
    21 C3           2.2690    -5.0560   -10.3590 C.ar         1 SUZ91    0.0000
    22 C2           3.2980    -4.8570    -9.4500 C.ar         1 SUZ91    0.0000
    23 S            4.6610    -5.9370    -9.3700 S.o          1 SUZ91    0.0000
    24 O1           4.2990    -7.2510    -8.9250 O.2          1 SUZ91    0.0000
    25 C1           5.6750    -5.1820    -8.1330 C.3          1 SUZ91    0.0000
    26 H1           3.9786    -3.6094    -7.8940 H            1 SUZ91    0.0000
    27 H2           2.1340    -2.0996    -7.9642 H            1 SUZ91    0.0000
    28 H3          -0.7958    -2.6131   -10.0820 H            1 SUZ91    0.0000
    29 H4          -0.0726    -1.4572    -9.1833 H            1 SUZ91    0.0000
    30 H5           1.0686    -4.8703    -7.5822 H            1 SUZ91    0.0000
    31 H6           1.0782    -6.2556    -5.6822 H            1 SUZ91    0.0000
    32 H7          -2.4434    -4.5427    -4.3125 H            1 SUZ91    0.0000
    33 H8          -3.7590    -1.3789    -5.2918 H            1 SUZ91    0.0000
    34 H9          -3.8635    -2.9293    -4.7898 H            1 SUZ91    0.0000
    35 H10         -3.9494    -0.6981    -8.0275 H            1 SUZ91    0.0000
    36 H11         -2.7539    -0.6982    -9.2808 H            1 SUZ91    0.0000
    37 H12          0.4330    -4.3050   -11.0601 H            1 SUZ91    0.0000
    38 H13          2.3003    -5.8346   -10.9858 H            1 SUZ91    0.0000
    39 H14          6.5025    -5.7279    -8.0015 H            1 SUZ91    0.0000
    40 H15          5.9272    -4.2597    -8.4260 H            1 SUZ91    0.0000
    41 H16          5.1687    -5.1315    -7.2721 H            1 SUZ91    0.0000
@<TRIPOS>BOND
     1    1    2      ar
     2    1   22      ar
     3    2    3      ar
     4    3    4       1
     5    3   20      ar
     6    4    5       1
     7    5    6       2
     8    5   18       1
     9    6    7       1
    10    6   12       1
    11    7    8       2
    12    8    9       1
    13    9   10       1
    14    9   11       2
    15   11   12       1
    16   12   13       2
    17   13   14       1
    18   13   18       1
    19   14   15       1
    20   15   16      ar
    21   15   17      ar
    22   18   19       2
    23   20   21      ar
    24   21   22      ar
    25   22   23       1
    26   23   24       2
    27   23   25       1
    28    1   26       1
    29    2   27       1
    30    4   28       1
    31    4   29       1
    32    7   30       1
    33    8   31       1
    34   11   32       1
    35   14   33       1
    36   14   34       1
    37   25   41       1
    38   19   35       1
    39   19   36       1
    40   20   37       1
    41   21   38       1
    42   25   39       1
    43   25   40       1
@<TRIPOS>SUBSTRUCTURE
     1 SUZ91       1 GROUP             4 A     SUZ     0 **** SUZ A  91
