@<TRIPOS>MOLECULE
2vo4_GTB_1_ligand
   51    51     1     0     0
SMALL
NO_CHARGES


@<TRIPOS>ATOM
     1 N1          27.9290   -28.4680    -3.0660 N.4          1 GTB1220   1.0000
     2 CA1         28.8790   -29.5470    -3.3240 C.3          1 GTB1220   0.0000
     3 C1          28.5770   -30.2550    -4.6390 C.2          1 GTB1220   0.0000
     4 O11         27.4090   -30.2950    -5.1080 O.co2        1 GTB1220   0.0000
     5 O12         29.5180   -30.7940    -5.2440 O.co2        1 GTB1220  -1.0000
     6 CB1         28.8160   -30.5090    -2.1400 C.3          1 GTB1220   0.0000
     7 CG1         29.8820   -31.6010    -2.2160 C.3          1 GTB1220   0.0000
     8 CD1         30.1840   -32.1990    -0.8490 C.2          1 GTB1220   0.0000
     9 OE1         29.4420   -31.9950     0.0960 O.2          1 GTB1220   0.0000
    10 N2          31.2910   -32.9470    -0.7280 N.am         1 GTB1220   0.0000
    11 CA2         31.6850   -33.5460     0.5810 C.3          1 GTB1220   0.0000
    12 C2          33.1100   -33.1360     0.8580 C.2          1 GTB1220   0.0000
    13 O2          33.9320   -33.2060    -0.0350 O.2          1 GTB1220   0.0000
    14 CB2         31.6440   -35.0840     0.5290 C.3          1 GTB1220   0.0000
    15 SG2         30.0330   -35.8100     0.2920 S.3          1 GTB1220   0.0000
    16 N3          33.4470   -32.6870     2.0650 N.am         1 GTB1220   0.0000
    17 CA3         34.8130   -32.2880     2.4410 C.3          1 GTB1220   0.0000
    18 C3          34.9080   -32.1880     3.9270 C.2          1 GTB1220   0.0000
    19 O31         33.9200   -32.5760     4.5900 O.co2        1 GTB1220   0.0000
    20 O32         35.9400   -31.7050     4.4150 O.co2        1 GTB1220  -1.0000
    21 C'          29.0630   -35.2880     1.6690 C.3          1 GTB1220   0.0000
    22 C1'         29.6510   -35.7590     2.9700 C.ar         1 GTB1220   0.0000
    23 C2'         30.2050   -34.8290     3.8650 C.ar         1 GTB1220   0.0000
    24 C3'         30.7250   -35.2680     5.0730 C.ar         1 GTB1220   0.0000
    25 C4'         30.7270   -36.6320     5.3630 C.ar         1 GTB1220   0.0000
    26 N41         31.2700   -37.0620     6.5910 N.2          1 GTB1220   1.0000
    27 O41         31.5930   -36.2410     7.4380 O.co2        1 GTB1220   0.0000
    28 O42         31.3960   -38.2530     6.8180 O.co2        1 GTB1220  -1.0000
    29 C5'         30.1980   -37.5700     4.4770 C.ar         1 GTB1220   0.0000
    30 C6'         29.6380   -37.1220     3.2730 C.ar         1 GTB1220   0.0000
    31 H1          28.1548   -28.0255    -2.1982 H            1 GTB1220   0.0000
    32 H2          27.9784   -27.7965    -3.8054 H            1 GTB1220   0.0000
    33 HA1         29.7993   -29.1589    -3.3730 H            1 GTB1220   0.0000
    34 HB11        27.9144   -30.9414    -2.1257 H            1 GTB1220   0.0000
    35 HB12        28.9495   -29.9886    -1.2966 H            1 GTB1220   0.0000
    36 HG11        30.7221   -31.2068    -2.5887 H            1 GTB1220   0.0000
    37 HG12        29.5574   -32.3275    -2.8217 H            1 GTB1220   0.0000
    38 H8          31.8642   -33.1066    -1.5317 H            1 GTB1220   0.0000
    39 HA2         31.0841   -33.2109     1.3067 H            1 GTB1220   0.0000
    40 HB21        32.0125   -35.4300     1.3918 H            1 GTB1220   0.0000
    41 HB22        32.2285   -35.3811    -0.2261 H            1 GTB1220   0.0000
    42 H12         32.7292   -32.6166     2.7577 H            1 GTB1220   0.0000
    43 HA31        35.0258   -31.4004     2.0325 H            1 GTB1220   0.0000
    44 HA32        35.4634   -32.9718     2.1102 H            1 GTB1220   0.0000
    45 H'1         28.1400   -35.6613     1.5760 H            1 GTB1220   0.0000
    46 H'2         29.0195   -34.2890     1.6753 H            1 GTB1220   0.0000
    47 H2'         30.2243   -33.8566     3.6325 H            1 GTB1220   0.0000
    48 H3'         31.0954   -34.6121     5.7307 H            1 GTB1220   0.0000
    49 H5'         30.2179   -38.5453     4.6970 H            1 GTB1220   0.0000
    50 H6'         29.2312   -37.7750     2.6342 H            1 GTB1220   0.0000
    51 H21         27.0033   -28.8433    -3.0178 H            1 GTB1220   0.0000
@<TRIPOS>BOND
     1    1    2       1
     2    2    3       1
     3    2    6       1
     4    3    4      ar
     5    3    5      ar
     6    6    7       1
     7    7    8       1
     8    8    9       2
     9    8   10      am
    10   10   11       1
    11   11   12       1
    12   11   14       1
    13   12   13       2
    14   12   16      am
    15   14   15       1
    16   15   21       1
    17   16   17       1
    18   17   18       1
    19   18   19      ar
    20   18   20      ar
    21   21   22       1
    22   22   23      ar
    23   22   30      ar
    24   23   24      ar
    25   24   25      ar
    26   25   26       1
    27   25   29      ar
    28   26   27      ar
    29   26   28      ar
    30   29   30      ar
    31    1   31       1
    32    1   32       1
    33    2   33       1
    34    1   51       1
    35    6   34       1
    36    6   35       1
    37    7   36       1
    38    7   37       1
    39   10   38       1
    40   11   39       1
    41   14   40       1
    42   14   41       1
    43   16   42       1
    44   17   43       1
    45   17   44       1
    46   30   50       1
    47   21   45       1
    48   21   46       1
    49   23   47       1
    50   24   48       1
    51   29   49       1
@<TRIPOS>SUBSTRUCTURE
     1 GTB1220     1 GROUP             4 A     GTB     0 **** GTB A1220
