@<TRIPOS>MOLECULE
3g0d_XIH_2_ligand
   53    56     1     0     0
SMALL
NO_CHARGES


@<TRIPOS>ATOM
     1 C5           0.5590   -13.1160    19.6770 C.2          1 XIH800   0.0000
     2 C6          -0.3860   -12.3190    18.9000 C.2          1 XIH800   0.0000
     3 C8          -0.5870   -11.8860    20.9760 C.2          1 XIH800   0.0000
     4 C10         -1.8260   -12.1730    23.0520 C.3          1 XIH800   0.0000
     5 C13         -1.3810    -9.3030    23.5440 C.3          1 XIH800   0.0000
     6 C15         -1.2120    -9.8010    22.1120 C.3          1 XIH800   0.0000
     7 C17          1.1020   -13.3860    22.1590 C.3          1 XIH800   0.0000
     8 C20          4.6690   -14.3460    22.9700 C.ar         1 XIH800   0.0000
     9 C21          5.3930   -13.2070    22.6400 C.ar         1 XIH800   0.0000
    10 C22          4.7220   -12.0990    22.1360 C.ar         1 XIH800   0.0000
    11 C24          2.7910   -11.0240    21.4900 C.1          1 XIH800   0.0000
    12 C28          0.3830   -13.2840    16.8830 C.2          1 XIH800   0.0000
    13 C            2.1780   -14.9580    16.7330 C.3          1 XIH800   0.0000
    14 N            1.3350   -14.0800    17.5520 N.pl3        1 XIH800   0.0000
    15 C3           1.4610   -14.0320    18.9560 C.2          1 XIH800   0.0000
    16 O            2.2920   -14.7470    19.5450 O.2          1 XIH800   0.0000
    17 N7          -1.0920   -11.5650    19.7600 N.2          1 XIH800   0.0000
    18 N9          -1.1640   -11.2780    22.0690 N.pl3        1 XIH800   0.0000
    19 C11         -2.2590   -11.5020    24.3660 C.3          1 XIH800   0.0000
    20 C12         -2.5660   -10.0130    24.2110 C.3          1 XIH800   0.0000
    21 N14         -0.1560    -9.6140    24.2540 N.4          1 XIH800   1.0000
    22 N16          0.4050   -12.8150    20.9860 N.pl3        1 XIH800   0.0000
    23 C18          2.6080   -13.2520    22.2820 C.ar         1 XIH800   0.0000
    24 C19          3.2850   -14.3640    22.7880 C.ar         1 XIH800   0.0000
    25 C23          3.3320   -12.1030    21.9640 C.ar         1 XIH800   0.0000
    26 N25          2.3500   -10.0530    21.0130 N.1          1 XIH800   0.0000
    27 N26         -0.4780   -12.3890    17.5670 N.pl3        1 XIH800   0.0000
    28 C27         -1.4540   -11.5720    16.8120 C.3          1 XIH800   0.0000
    29 O29          0.3140   -13.3840    15.6390 O.2          1 XIH800   0.0000
    30 H1          -1.1883   -12.9097    23.2771 H            1 XIH800   0.0000
    31 H2          -2.6409   -12.5582    22.6189 H            1 XIH800   0.0000
    32 H3          -1.5327    -8.3146    23.5446 H            1 XIH800   0.0000
    33 H4          -0.3607    -9.4347    21.7364 H            1 XIH800   0.0000
    34 H5          -1.9836    -9.4824    21.5614 H            1 XIH800   0.0000
    35 H6           0.8969   -14.3647    22.1692 H            1 XIH800   0.0000
    36 H7           0.7060   -12.9540    22.9693 H            1 XIH800   0.0000
    37 H8           5.1375   -15.1498    23.3365 H            1 XIH800   0.0000
    38 H9           6.3851   -13.1846    22.7636 H            1 XIH800   0.0000
    39 H10          5.2429   -11.2813    21.8909 H            1 XIH800   0.0000
    40 H11          2.8055   -15.4642    17.3245 H            1 XIH800   0.0000
    41 H12          1.6002   -15.6019    16.2314 H            1 XIH800   0.0000
    42 H13          2.7029   -14.4064    16.0848 H            1 XIH800   0.0000
    43 H14         -1.5220   -11.6064    25.0337 H            1 XIH800   0.0000
    44 H15         -3.0808   -11.9623    24.7018 H            1 XIH800   0.0000
    45 H16         -3.3821    -9.8998    23.6443 H            1 XIH800   0.0000
    46 H17         -2.7280    -9.6121    25.1127 H            1 XIH800   0.0000
    47 H18          0.4823    -8.8490    24.1684 H            1 XIH800   0.0000
    48 H19         -0.3612    -9.7704    25.2201 H            1 XIH800   0.0000
    49 H20          2.7692   -15.1876    23.0241 H            1 XIH800   0.0000
    50 H21         -1.3667   -11.7668    15.8350 H            1 XIH800   0.0000
    51 H22         -2.3805   -11.7951    17.1149 H            1 XIH800   0.0000
    52 H23         -1.2743   -10.6020    16.9759 H            1 XIH800   0.0000
    53 H24          0.2560   -10.4371    23.8632 H            1 XIH800   0.0000
@<TRIPOS>BOND
     1    1    2       2
     2    1   15       1
     3    1   22       1
     4    2   17       1
     5    2   27       1
     6    3   17       2
     7    3   18       1
     8    3   22       1
     9    4   18       1
    10    4   19       1
    11    5    6       1
    12    5   20       1
    13    5   21       1
    14    6   18       1
    15    7   22       1
    16    7   23       1
    17    8    9      ar
    18    8   24      ar
    19    9   10      ar
    20   10   25      ar
    21   11   25       1
    22   11   26       3
    23   12   14       1
    24   12   27       1
    25   12   29       2
    26   13   14       1
    27   14   15       1
    28   15   16       2
    29   19   20       1
    30   23   24      ar
    31   23   25      ar
    32   27   28       1
    33    4   30       1
    34    4   31       1
    35    5   32       1
    36    6   33       1
    37    6   34       1
    38    7   35       1
    39    7   36       1
    40    8   37       1
    41    9   38       1
    42   10   39       1
    43   13   40       1
    44   13   41       1
    45   13   42       1
    46   19   43       1
    47   19   44       1
    48   20   45       1
    49   20   46       1
    50   21   47       1
    51   21   48       1
    52   24   49       1
    53   28   50       1
    54   28   51       1
    55   28   52       1
    56   21   53       1
@<TRIPOS>SUBSTRUCTURE
     1 XIH800      1 GROUP             4 B     XIH     0 **** XIH B 800
