@<TRIPOS>MOLECULE
2qfv_NAP_4_ligand
   73    77     1     0     0
SMALL
NO_CHARGES


@<TRIPOS>ATOM
     1 PA         -31.7290   -29.5200   -38.1980 P.3          1 NAP1004   0.0000
     2 O1A        -31.8680   -28.8750   -36.8740 O.co2        1 NAP1004   0.0000
     3 O2A        -32.2040   -28.7890   -39.3930 O.co2        1 NAP1004  -1.0000
     4 O5B        -32.4130   -30.9750   -38.1410 O.3          1 NAP1004   0.0000
     5 C5B        -31.8410   -32.0130   -37.3410 C.3          1 NAP1004   0.0000
     6 C4B        -32.5890   -33.3280   -37.5690 C.3          1 NAP1004   0.0000
     7 O4B        -33.9650   -33.2630   -37.1490 O.3          1 NAP1004   0.0000
     8 C3B        -32.6340   -33.6730   -39.0570 C.3          1 NAP1004   0.0000
     9 O3B        -31.4170   -34.3280   -39.4270 O.3          1 NAP1004   0.0000
    10 C2B        -33.7850   -34.6760   -39.0230 C.3          1 NAP1004   0.0000
    11 O2B        -33.3920   -35.8610   -38.3260 O.3          1 NAP1004   0.0000
    12 C1B        -34.7730   -33.8840   -38.1650 C.3          1 NAP1004   0.0000
    13 N9A        -35.4090   -32.8180   -38.9750 N.pl3        1 NAP1004   0.0000
    14 C8A        -35.2680   -31.5080   -38.7980 C.2          1 NAP1004   0.0000
    15 N7A        -36.0080   -30.8520   -39.6900 N.2          1 NAP1004   0.0000
    16 C5A        -36.6210   -31.7570   -40.4480 C.ar         1 NAP1004   0.0000
    17 C6A        -37.4910   -31.6910   -41.5300 C.ar         1 NAP1004   0.0000
    18 N6A        -37.9020   -30.5120   -41.9880 N.pl3        1 NAP1004   0.0000
    19 N1A        -37.9220   -32.8320   -42.0920 N.ar         1 NAP1004   0.0000
    20 C2A        -37.5390   -34.0120   -41.6340 C.ar         1 NAP1004   0.0000
    21 N3A        -36.7150   -34.1100   -40.6030 N.ar         1 NAP1004   0.0000
    22 C4A        -36.2410   -33.0110   -39.9940 C.ar         1 NAP1004   0.0000
    23 O3         -30.1800   -29.8880   -38.4330 O.3          1 NAP1004   0.0000
    24 PN         -29.0350   -29.4880   -37.3760 P.3          1 NAP1004   0.0000
    25 O1N        -29.6300   -29.3030   -36.0350 O.co2        1 NAP1004   0.0000
    26 O2N        -27.9110   -30.4400   -37.5210 O.co2        1 NAP1004  -1.0000
    27 O5D        -28.5450   -28.0530   -37.9220 O.3          1 NAP1004   0.0000
    28 C5D        -28.0350   -27.9370   -39.2530 C.3          1 NAP1004   0.0000
    29 C4D        -27.7650   -26.4790   -39.6330 C.3          1 NAP1004   0.0000
    30 O4D        -28.9660   -25.7350   -39.3580 O.3          1 NAP1004   0.0000
    31 C3D        -26.6480   -25.8450   -38.7990 C.3          1 NAP1004   0.0000
    32 O3D        -25.8460   -24.9730   -39.6010 O.3          1 NAP1004   0.0000
    33 C2D        -27.4180   -25.0430   -37.7530 C.3          1 NAP1004   0.0000
    34 O2D        -26.6670   -23.9010   -37.3320 O.3          1 NAP1004   0.0000
    35 C1D        -28.5910   -24.5670   -38.6100 C.3          1 NAP1004   0.0000
    36 N1N        -29.7430   -24.0380   -37.8430 N.ar         1 NAP1004   1.0000
    37 C2N        -30.4930   -22.9840   -38.3810 C.ar         1 NAP1004   0.0000
    38 C3N        -31.6390   -22.5470   -37.7250 C.ar         1 NAP1004   0.0000
    39 C7N        -32.5150   -21.4550   -38.3460 C.2          1 NAP1004   0.0000
    40 O7N        -32.0535   -20.6820   -39.1845 O.2          1 NAP1004   0.0000
    41 N7N        -33.7837   -21.4410   -37.9451 N.am         1 NAP1004   0.0000
    42 C4N        -32.0240   -23.1560   -36.5340 C.ar         1 NAP1004   0.0000
    43 C5N        -31.2830   -24.1980   -35.9870 C.ar         1 NAP1004   0.0000
    44 C6N        -30.1380   -24.6440   -36.6420 C.ar         1 NAP1004   0.0000
    45 P2B        -32.9240   -37.1640   -39.1480 P.3          1 NAP1004   0.0000
    46 O1X        -32.8620   -38.3700   -38.2930 O.co2        1 NAP1004   0.0000
    47 O2X        -33.9320   -37.3480   -40.3900 O.co2        1 NAP1004  -1.0000
    48 O3X        -31.4940   -36.7820   -39.7800 O.co2        1 NAP1004  -1.0000
    49 H5B1       -31.9050   -31.7595   -36.3758 H            1 NAP1004   0.0000
    50 H5B2       -30.8802   -32.1317   -37.5914 H            1 NAP1004   0.0000
    51 H4B        -32.1259   -34.0624   -37.0729 H            1 NAP1004   0.0000
    52 H3B        -32.8330   -32.8783   -39.6304 H            1 NAP1004   0.0000
    53 H5         -31.6235   -35.2409   -39.7791 H            1 NAP1004   0.0000
    54 H2B        -34.1454   -34.8727   -39.9348 H            1 NAP1004   0.0000
    55 H1B        -35.4606   -34.4863   -37.7595 H            1 NAP1004   0.0000
    56 H8A        -34.6932   -31.0799   -38.1006 H            1 NAP1004   0.0000
    57 H6A1       -38.5279   -30.4687   -42.7667 H            1 NAP1004   0.0000
    58 H6A2       -37.5851   -29.6688   -41.5537 H            1 NAP1004   0.0000
    59 H2A        -37.8775   -34.8438   -42.0739 H            1 NAP1004   0.0000
    60 H5D1       -28.7040   -28.3191   -39.8905 H            1 NAP1004   0.0000
    61 H5D2       -27.1804   -28.4521   -39.3183 H            1 NAP1004   0.0000
    62 H4D        -27.5410   -26.4165   -40.6056 H            1 NAP1004   0.0000
    63 H3D        -26.0847   -26.5481   -38.3650 H            1 NAP1004   0.0000
    64 H16        -24.8991   -25.2944   -39.5982 H            1 NAP1004   0.0000
    65 H2D        -27.7144   -25.6081   -36.9830 H            1 NAP1004   0.0000
    66 H18        -27.1898   -23.3918   -36.6483 H            1 NAP1004   0.0000
    67 H1D        -28.2688   -23.8630   -39.2430 H            1 NAP1004   0.0000
    68 H2N        -30.2055   -22.5475   -39.2335 H            1 NAP1004   0.0000
    69 H7N1       -34.4294   -20.7945   -38.3515 H            1 NAP1004   0.0000
    70 H7N2       -34.0915   -22.0771   -37.2375 H            1 NAP1004   0.0000
    71 H4N        -32.8475   -22.8388   -36.0637 H            1 NAP1004   0.0000
    72 H5N        -31.5705   -24.6240   -35.1292 H            1 NAP1004   0.0000
    73 H6N        -29.5995   -25.3937   -36.2572 H            1 NAP1004   0.0000
@<TRIPOS>BOND
     1    1    2      ar
     2    1    3      ar
     3    1    4       1
     4    1   23       1
     5    4    5       1
     6    5    6       1
     7    6    7       1
     8    6    8       1
     9    7   12       1
    10    8    9       1
    11    8   10       1
    12   10   11       1
    13   10   12       1
    14   11   45       1
    15   12   13       1
    16   13   14       1
    17   13   22       1
    18   14   15       2
    19   15   16       1
    20   16   17      ar
    21   16   22      ar
    22   17   18       1
    23   17   19      ar
    24   19   20      ar
    25   20   21      ar
    26   21   22      ar
    27   23   24       1
    28   24   25      ar
    29   24   26      ar
    30   24   27       1
    31   27   28       1
    32   28   29       1
    33   29   30       1
    34   29   31       1
    35   30   35       1
    36   31   32       1
    37   31   33       1
    38   33   34       1
    39   33   35       1
    40   35   36       1
    41   36   37      ar
    42   36   44      ar
    43   37   38      ar
    44   38   39       1
    45   38   42      ar
    46   39   40       2
    47   39   41      am
    48   42   43      ar
    49   43   44      ar
    50   45   46      ar
    51   45   47      ar
    52   45   48      ar
    53   43   72       1
    54    5   49       1
    55    5   50       1
    56    6   51       1
    57    8   52       1
    58    9   53       1
    59   10   54       1
    60   12   55       1
    61   14   56       1
    62   18   57       1
    63   18   58       1
    64   20   59       1
    65   44   73       1
    66   28   60       1
    67   28   61       1
    68   29   62       1
    69   31   63       1
    70   32   64       1
    71   33   65       1
    72   34   66       1
    73   35   67       1
    74   37   68       1
    75   41   69       1
    76   41   70       1
    77   42   71       1
@<TRIPOS>SUBSTRUCTURE
     1 NAP1004     1 GROUP             4 D     NAP     0 **** NAP D1004
