@<TRIPOS>MOLECULE
2p3a_3TL_1_ligand
  130   133     1     0     0
SMALL
NO_CHARGES


@<TRIPOS>ATOM
     1 C31         15.1520     4.3930     8.0640 C.2          1 3TL201   0.0000
     2 O8          13.9890     4.1390     7.8160 O.2          1 3TL201   0.0000
     3 O9          15.5740     4.5070     9.4450 O.3          1 3TL201   0.0000
     4 CA          14.5920     4.4530    10.4690 C.3          1 3TL201   0.0000
     5 C           13.7420     5.6960    10.4120 C.ar         1 3TL201   0.0000
     6 C13         12.5100     5.6960    11.0640 C.ar         1 3TL201   0.0000
     7 C14         11.7140     6.8480    11.0300 C.ar         1 3TL201   0.0000
     8 C15         12.1500     7.9930    10.3570 C.ar         1 3TL201   0.0000
     9 C16         13.3930     7.9840     9.7110 C.ar         1 3TL201   0.0000
    10 C17         14.1960     6.8390     9.7460 C.ar         1 3TL201   0.0000
    11 N4          16.1040     4.6000     7.1750 N.am         1 3TL201   0.0000
    12 C18         16.0040     4.2500     5.7870 C.3          1 3TL201   0.0000
    13 C19         16.8920     3.0840     5.4300 C.2          1 3TL201   0.0000
    14 O4          18.0540     3.0410     5.7890 O.2          1 3TL201   0.0000
    15 C20         16.4030     5.4680     4.9770 C.3          1 3TL201   0.0000
    16 N2          16.3440     2.1220     4.6850 N.am         1 3TL201   0.0000
    17 C10         17.2550     1.1070     4.1680 C.3          1 3TL201   0.0000
    18 C11         17.1110     1.0430     2.6750 C.2          1 3TL201   0.0000
    19 O2          16.0300     0.8090     2.1630 O.2          1 3TL201   0.0000
    20 C12         17.0460    -0.2270     4.8970 C.3          1 3TL201   0.0000
    21 CG2         17.5690    -0.1690     6.3290 C.3          1 3TL201   0.0000
    22 CG1         17.6970    -1.3790     4.1160 C.3          1 3TL201   0.0000
    23 C2          19.1620     0.2190    -0.0290 C.3          1 3TL201   0.0000
    24 O1          20.4630     0.4950     0.4650 O.3          1 3TL201   0.0000
    25 C1          18.2400     1.2900     0.5240 C.3          1 3TL201   0.0000
    26 N1          18.2190     1.2750     1.9740 N.am         1 3TL201   0.0000
    27 C3          18.8020     2.6180     0.0650 C.3          1 3TL201   0.0000
    28 C4          17.8760     3.7170     0.4890 C.ar         1 3TL201   0.0000
    29 C5          18.4020     4.8310     1.1740 C.ar         1 3TL201   0.0000
    30 C9          16.5110     3.6150     0.1940 C.ar         1 3TL201   0.0000
    31 C6          17.5370     5.8580     1.5660 C.ar         1 3TL201   0.0000
    32 C8          15.6560     4.6350     0.5910 C.ar         1 3TL201   0.0000
    33 C7          16.1670     5.7530     1.2670 C.ar         1 3TL201   0.0000
    34 N51         17.5870    -1.6870    -1.6450 N.am         1 3TL201   0.0000
    35 C51         17.4730    -1.6920    -0.1970 C.3          1 3TL201   0.0000
    36 C52         18.7520    -1.1770     0.4290 C.3          1 3TL201   0.0000
    37 O51         19.7830    -2.0790     0.0650 O.3          1 3TL201   0.0000
    38 C53         17.3220    -3.0950     0.4090 C.3          1 3TL201   0.0000
    39 C54         16.7220    -4.1830    -0.4470 C.ar         1 3TL201   0.0000
    40 C55         15.4240    -4.0520    -0.9200 C.ar         1 3TL201   0.0000
    41 C59         17.4640    -5.3450    -0.7290 C.ar         1 3TL201   0.0000
    42 C56         14.8770    -5.0630    -1.6920 C.ar         1 3TL201   0.0000
    43 C58         16.9160    -6.3710    -1.5020 C.ar         1 3TL201   0.0000
    44 C57         15.6080    -6.2260    -1.9750 C.ar         1 3TL201   0.0000
    45 N52         16.8870    -2.2820    -4.4170 N.am         1 3TL201   0.0000
    46 C60         17.3080    -0.9790    -3.9290 C.3          1 3TL201   0.0000
    47 C61         16.8500    -0.9570    -2.4910 C.2          1 3TL201   0.0000
    48 O52         15.8310    -0.3870    -2.1610 O.2          1 3TL201   0.0000
    49 C62         16.7270     0.1510    -4.8160 C.3          1 3TL201   0.0000
    50 CG6         16.8580    -0.0590    -6.3120 C.3          1 3TL201   0.0000
    51 CG5         17.2800     1.5420    -4.4620 C.3          1 3TL201   0.0000
    52 N54         16.9790    -4.4210    -7.0540 N.am         1 3TL201   0.0000
    53 C68         16.8900    -4.3350    -5.6100 C.3          1 3TL201   0.0000
    54 C69         17.6040    -3.0850    -5.1990 C.2          1 3TL201   0.0000
    55 O54         18.7340    -2.8620    -5.6300 O.2          1 3TL201   0.0000
    56 C70         17.4830    -5.5860    -4.9820 C.3          1 3TL201   0.0000
    57 C81         15.8890    -4.3970    -7.7940 C.2          1 3TL201   0.0000
    58 O58         14.8480    -3.8320    -7.4940 O.2          1 3TL201   0.0000
    59 O59         15.9360    -5.0730    -9.0630 O.3          1 3TL201   0.0000
    60 CA5         14.6990    -5.0860    -9.7970 C.3          1 3TL201   0.0000
    61 C50         13.8220    -6.2860    -9.5060 C.ar         1 3TL201   0.0000
    62 C63         12.7720    -6.5710   -10.3930 C.ar         1 3TL201   0.0000
    63 C64         11.9270    -7.6610   -10.1740 C.ar         1 3TL201   0.0000
    64 C65         12.1190    -8.4920    -9.0670 C.ar         1 3TL201   0.0000
    65 C66         13.1690    -8.2110    -8.1710 C.ar         1 3TL201   0.0000
    66 C67         14.0240    -7.1180    -8.3970 C.ar         1 3TL201   0.0000
    67 HA1         15.0419     4.3969    11.3603 H            1 3TL201   0.0000
    68 HA2         14.0147     3.6474    10.3357 H            1 3TL201   0.0000
    69 H3          12.1973     4.8809    11.5516 H            1 3TL201   0.0000
    70 H4          10.8266     6.8514    11.4909 H            1 3TL201   0.0000
    71 H5          11.5783     8.8132    10.3368 H            1 3TL201   0.0000
    72 H6          13.7073     8.7985     9.2234 H            1 3TL201   0.0000
    73 H7          15.0897     6.8378     9.2973 H            1 3TL201   0.0000
    74 H8          16.9510     5.0290     7.4888 H            1 3TL201   0.0000
    75 H9          15.0551     4.0144     5.5770 H            1 3TL201   0.0000
    76 H10         16.3431     5.2542     4.0020 H            1 3TL201   0.0000
    77 H11         15.7873     6.2265     5.1904 H            1 3TL201   0.0000
    78 H12         17.3418     5.7266     5.2044 H            1 3TL201   0.0000
    79 H13         15.3631     2.0983     4.4919 H            1 3TL201   0.0000
    80 H14         18.1864     1.4128     4.3656 H            1 3TL201   0.0000
    81 H15         16.0624    -0.4025     4.9376 H            1 3TL201   0.0000
    82 HG21        17.4181    -1.0512     6.7750 H            1 3TL201   0.0000
    83 HG22        18.5477     0.0360     6.3184 H            1 3TL201   0.0000
    84 HG23        17.0840     0.5462     6.8323 H            1 3TL201   0.0000
    85 HG11        17.5505    -2.2384     4.6058 H            1 3TL201   0.0000
    86 HG12        17.2858    -1.4394     3.2065 H            1 3TL201   0.0000
    87 HG13        18.6784    -1.2089     4.0274 H            1 3TL201   0.0000
    88 H22         19.1648     0.2591    -1.0282 H            1 3TL201   0.0000
    89 H23         20.9411     1.0980    -0.1736 H            1 3TL201   0.0000
    90 H24         17.3148     1.1658     0.1654 H            1 3TL201   0.0000
    91 H25         19.0717     1.4459     2.4676 H            1 3TL201   0.0000
    92 H26         18.8879     2.6186    -0.9313 H            1 3TL201   0.0000
    93 H27         19.7018     2.7610     0.4772 H            1 3TL201   0.0000
    94 H28         19.3796     4.8863     1.3768 H            1 3TL201   0.0000
    95 H29         16.1566     2.8185    -0.2959 H            1 3TL201   0.0000
    96 H30         17.8887     6.6574     2.0531 H            1 3TL201   0.0000
    97 H31         14.6773     4.5725     0.3952 H            1 3TL201   0.0000
    98 H32         15.5464     6.4878     1.5409 H            1 3TL201   0.0000
    99 H33         18.2806    -2.2845    -2.0473 H            1 3TL201   0.0000
   100 H34         16.7039    -1.1178     0.0837 H            1 3TL201   0.0000
   101 H35         18.6526    -1.1785     1.4240 H            1 3TL201   0.0000
   102 H36         20.4480    -2.1430     0.8091 H            1 3TL201   0.0000
   103 H37         16.7460    -3.0061     1.2216 H            1 3TL201   0.0000
   104 H38         18.2350    -3.4006     0.6793 H            1 3TL201   0.0000
   105 H39         14.8887    -3.2351    -0.7053 H            1 3TL201   0.0000
   106 H40         18.3936    -5.4371    -0.3721 H            1 3TL201   0.0000
   107 H41         13.9495    -4.9627    -2.0521 H            1 3TL201   0.0000
   108 H42         17.4474    -7.1915    -1.7127 H            1 3TL201   0.0000
   109 H43         15.1917    -6.9554    -2.5179 H            1 3TL201   0.0000
   110 H44         15.9807    -2.6024    -4.1413 H            1 3TL201   0.0000
   111 H45         18.3065    -0.9301    -3.9529 H            1 3TL201   0.0000
   112 H46         15.7464     0.1823    -4.6227 H            1 3TL201   0.0000
   113 HG61        16.4560     0.7193    -6.7943 H            1 3TL201   0.0000
   114 HG62        17.8250    -0.1379    -6.5541 H            1 3TL201   0.0000
   115 HG63        16.3793    -0.8969    -6.5742 H            1 3TL201   0.0000
   116 HG51        16.8706     2.2268    -5.0649 H            1 3TL201   0.0000
   117 HG52        17.0558     1.7579    -3.5117 H            1 3TL201   0.0000
   118 HG53        18.2731     1.5457    -4.5793 H            1 3TL201   0.0000
   119 H53         17.8745    -4.4992    -7.4921 H            1 3TL201   0.0000
   120 H54         15.9281    -4.2626    -5.3465 H            1 3TL201   0.0000
   121 H55         17.4191    -5.5215    -3.9861 H            1 3TL201   0.0000
   122 H56         16.9772    -6.3890    -5.2971 H            1 3TL201   0.0000
   123 H57         18.4428    -5.6704    -5.2496 H            1 3TL201   0.0000
   124 HA51        14.9130    -5.0826   -10.7738 H            1 3TL201   0.0000
   125 HA52        14.1871    -4.2589    -9.5650 H            1 3TL201   0.0000
   126 H60         12.6274    -5.9864   -11.1913 H            1 3TL201   0.0000
   127 H61         11.1806    -7.8479   -10.8127 H            1 3TL201   0.0000
   128 H62         11.5184    -9.2765    -8.9128 H            1 3TL201   0.0000
   129 H63         13.3071    -8.7925    -7.3693 H            1 3TL201   0.0000
   130 H64         14.7772    -6.9342    -7.7654 H            1 3TL201   0.0000
@<TRIPOS>BOND
     1    1    2       2
     2    1    3       1
     3    1   11      am
     4    3    4       1
     5    4    5       1
     6    5    6      ar
     7    5   10      ar
     8    6    7      ar
     9    7    8      ar
    10    8    9      ar
    11    9   10      ar
    12   11   12       1
    13   12   13       1
    14   12   15       1
    15   13   14       2
    16   13   16      am
    17   16   17       1
    18   17   18       1
    19   17   20       1
    20   18   19       2
    21   18   26      am
    22   20   21       1
    23   20   22       1
    24   23   24       1
    25   23   25       1
    26   23   36       1
    27   25   26       1
    28   25   27       1
    29   27   28       1
    30   28   29      ar
    31   28   30      ar
    32   29   31      ar
    33   30   32      ar
    34   31   33      ar
    35   32   33      ar
    36   34   35       1
    37   34   47      am
    38   35   36       1
    39   35   38       1
    40   36   37       1
    41   38   39       1
    42   39   40      ar
    43   39   41      ar
    44   40   42      ar
    45   41   43      ar
    46   42   44      ar
    47   43   44      ar
    48   45   46       1
    49   45   54      am
    50   46   47       1
    51   46   49       1
    52   47   48       2
    53   49   50       1
    54   49   51       1
    55   52   53       1
    56   52   57      am
    57   53   54       1
    58   53   56       1
    59   54   55       2
    60   57   58       2
    61   57   59       1
    62   59   60       1
    63   60   61       1
    64   61   62      ar
    65   61   66      ar
    66   62   63      ar
    67   63   64      ar
    68   64   65      ar
    69   65   66      ar
    70    4   67       1
    71    4   68       1
    72    6   69       1
    73    7   70       1
    74    8   71       1
    75    9   72       1
    76   10   73       1
    77   11   74       1
    78   12   75       1
    79   15   76       1
    80   15   77       1
    81   15   78       1
    82   16   79       1
    83   17   80       1
    84   20   81       1
    85   21   82       1
    86   21   83       1
    87   21   84       1
    88   22   85       1
    89   22   86       1
    90   22   87       1
    91   23   88       1
    92   24   89       1
    93   25   90       1
    94   26   91       1
    95   27   92       1
    96   27   93       1
    97   29   94       1
    98   30   95       1
    99   31   96       1
   100   32   97       1
   101   33   98       1
   102   34   99       1
   103   35  100       1
   104   36  101       1
   105   37  102       1
   106   38  103       1
   107   38  104       1
   108   40  105       1
   109   41  106       1
   110   42  107       1
   111   43  108       1
   112   44  109       1
   113   45  110       1
   114   46  111       1
   115   49  112       1
   116   50  113       1
   117   50  114       1
   118   50  115       1
   119   51  116       1
   120   51  117       1
   121   51  118       1
   122   52  119       1
   123   53  120       1
   124   56  121       1
   125   56  122       1
   126   56  123       1
   127   60  124       1
   128   60  125       1
   129   62  126       1
   130   63  127       1
   131   64  128       1
   132   65  129       1
   133   66  130       1
@<TRIPOS>SUBSTRUCTURE
     1 3TL201      1 GROUP             4 A     3TL     0 **** 3TL A 201
