@<TRIPOS>MOLECULE
./coach420/2ioa/ligand.pdb
 59 56 0 0 0
SMALL
GASTEIGER

@<TRIPOS>ATOM
      1 MG         -2.1590   15.0880   -0.8650 Mg    5001  MG5001      0.0000
      2  O2       -14.4560   18.5630    2.8960 O.3   6001  GGA6001     0.0000
      3  O4       -11.9960   18.6010    3.0020 O.3   6001  GGA6001     0.0000
      4  C6       -13.0030   18.3860    0.7740 C.3   6001  GGA6001     0.0000
      5  N8       -14.2650   18.1000    0.0770 N.3   6001  GGA6001     0.0000
      6  C10      -12.0030   17.2740    0.5610 C.3   6001  GGA6001     0.0000
      7  C12      -11.7760   17.0510   -0.9150 C.3   6001  GGA6001     0.0000
      8  C14      -10.8140   15.9370   -1.0900 C.2   6001  GGA6001     0.0000
      9  O16      -10.3120   15.3720   -0.1090 O.2   6001  GGA6001     0.0000
     10  N18      -10.5370   15.5460   -2.3900 N.am  6001  GGA6001     0.0000
     11  C20       -9.6820   14.4650   -2.7930 C.3   6001  GGA6001     0.0000
     12  C22       -9.8320   13.1070   -2.0650 C.3   6001  GGA6001     0.0000
     13  C24       -8.2140   14.8940   -2.8610 C.2   6001  GGA6001     0.0000
     14  O26       -8.0590   16.1100   -3.0360 O.2   6001  GGA6001     0.0000
     15  N30       -7.2000   13.9690   -2.7930 N.am  6001  GGA6001     0.0000
     16  C29       -5.8320   14.2990   -2.9270 C.3   6001  GGA6001     0.0000
     17  P34       -5.2710   13.1500   -3.9640 P.3   6001  GGA6001     0.0000
     18  C33       -6.3090   12.9240   -5.2150 C.3   6001  GGA6001     0.0000
     19  C35       -6.4300   14.1840   -6.0680 C.3   6001  GGA6001     0.0000
     20  C37       -7.4490   13.9860   -7.1870 C.3   6001  GGA6001     0.0000
     21  C39       -6.8800   14.1730   -8.5900 C.3   6001  GGA6001     0.0000
     22  N44       -8.0260   14.0040   -9.4960 N.3   6001  GGA6001     0.0000
     23  C43       -7.6250   14.2030  -10.8820 C.3   6001  GGA6001     0.0000
     24  C45       -8.8670   14.0990  -11.7840 C.3   6001  GGA6001     0.0000
     25  C47       -8.4560   14.3770  -13.2370 C.3   6001  GGA6001     0.0000
     26  C49       -9.6990   14.3180  -14.1330 C.3   6001  GGA6001     0.0000
     27  N54       -9.3250   14.5990  -15.5230 N.3   6001  GGA6001     0.0000
     28  O56       -5.3130   11.9430   -3.4010 O.2   6001  GGA6001     0.0000
     29  O58       -3.8650   13.4120   -4.6070 O.3   6001  GGA6001     0.0000
     30  P60       -3.0030   14.6890   -4.3490 P.3   6001  GGA6001     0.0000
     31  O62       -3.7070   15.9420   -4.7850 O.3   6001  GGA6001    -0.5000
     32  O64       -2.7690   14.8790   -3.0360 O.3   6001  GGA6001     0.0000
     33  O66       -1.7180   14.5330   -5.1210 O.2   6001  GGA6001    -0.5000
     34  O1B       -0.3290   18.7460   -2.8580 O.3   3001  ADP3001     0.0000
     35  O2B       -0.7230   16.5830   -1.6770 O.3   3001  ADP3001     0.0000
     36  O3B       -0.3100   16.5680   -4.1530 O.3   3001  ADP3001     0.0000
     37  PA         2.6880   16.5400   -3.2670 P.3   3001  ADP3001     0.0000
     38  O1A        3.8810   16.4360   -2.3500 O.3   3001  ADP3001     0.0000
     39  O2A        2.2070   15.2780   -3.8900 O.2   3001  ADP3001     0.0000
     40  O3A        1.5120   17.2080   -2.4770 O.3   3001  ADP3001     0.0000
     41  O5'        3.1430   17.6590   -4.2970 O.3   3001  ADP3001     0.0000
     42  C5'        2.3840   17.8780   -5.5220 C.3   3001  ADP3001     0.0000
     43  C4'        3.2160   17.7090   -6.7710 C.3   3001  ADP3001     0.0000
     44  O4'        4.3940   18.5480   -6.6210 O.3   3001  ADP3001     0.0000
     45  C3'        3.7910   16.3140   -7.0180 C.3   3001  ADP3001     0.0000
     46  O3'        2.9420   15.6570   -7.6450 O.3   3001  ADP3001     0.0000
     47  C2'        5.1070   16.6400   -7.7460 C.3   3001  ADP3001     0.0000
     48  O2'        4.9170   16.8130   -9.1570 O.3   3001  ADP3001     0.0000
     49  C1'        5.5650   17.9700   -7.1660 C.3   3001  ADP3001     0.0000
     50  N9         6.5520   17.8300   -6.0410 N.ar  3001  ADP3001     0.0000
     51  C8         6.2730   17.7170   -4.7140 C.ar  3001  ADP3001     0.0000
     52  N7         7.3620   17.6220   -3.9490 N.ar  3001  ADP3001     0.0000
     53  C5         8.3790   17.6810   -4.8310 C.ar  3001  ADP3001     0.0000
     54  C6         9.8060   17.6330   -4.6260 C.ar  3001  ADP3001     0.0000
     55  N6        10.3990   17.5200   -3.4940 N.pl3 3001  ADP3001     0.0000
     56  N1        10.5480   17.7280   -5.8000 N.ar  3001  ADP3001     0.0000
     57  C2         9.9670   17.8560   -7.0600 C.ar  3001  ADP3001     0.0000
     58  N3         8.6500   17.8980   -7.2670 N.ar  3001  ADP3001     0.0000
     59  C4         7.9030   17.8080   -6.1410 C.ar  3001  ADP3001     0.0000
@<TRIPOS>BOND
     1     1    35    1
     2     4     5    1
     3     4     6    1
     4     6     7    1
     5     7     8    1
     6     8    10   am
     7     8     9    2
     8    10    11    1
     9    11    13    1
    10    11    12    1
    11    13    14    2
    12    13    15   am
    13    15    16    1
    14    16    17    1
    15    17    18    1
    16    17    29    1
    17    17    28    2
    18    18    19    1
    19    19    20    1
    20    20    21    1
    21    21    22    1
    22    22    23    1
    23    23    24    1
    24    24    25    1
    25    25    26    1
    26    26    27    1
    27    29    30    1
    28    30    33    2
    29    30    31    1
    30    30    32    1
    31    37    41    1
    32    37    39    2
    33    37    40    1
    34    37    38    1
    35    41    42    1
    36    42    43    1
    37    43    45    1
    38    43    44    1
    39    44    49    1
    40    45    47    1
    41    45    46    1
    42    47    48    1
    43    47    49    1
    44    49    50    1
    45    50    59   ar
    46    50    51   ar
    47    51    52   ar
    48    52    53   ar
    49    53    59   ar
    50    53    54   ar
    51    54    56   ar
    52    54    55    1
    53    56    57   ar
    54    57    58   ar
    55    58    59   ar
    56    32     1    1
