@<TRIPOS>MOLECULE
4e70_N7I_1_ligand
   25    25     1     0     0
SMALL
NO_CHARGES


@<TRIPOS>ATOM
     1 C1          12.3290   -19.4400   -42.2950 C.ar         1 N7I403   0.0000
     2 O1          14.0470   -17.7590   -46.9590 O.3          1 N7I403   0.0000
     3 C2          15.8750   -16.6120   -40.0650 C.3          1 N7I403   0.0000
     4 O2          12.9040   -18.9510   -38.6840 O.3          1 N7I403   0.0000
     5 C3          12.1560   -19.5850   -40.9210 C.ar         1 N7I403   0.0000
     6 O3          14.7620   -17.3980   -39.6310 O.3          1 N7I403   0.0000
     7 C4          13.0020   -18.8750   -40.0190 C.ar         1 N7I403   0.0000
     8 C5          14.0290   -18.0140   -40.5620 C.ar         1 N7I403   0.0000
     9 C6          14.1710   -17.8830   -41.9340 C.ar         1 N7I403   0.0000
    10 C7          13.3340   -18.6050   -42.8310 C.ar         1 N7I403   0.0000
    11 C8          13.5290   -18.4040   -44.3020 C.2          1 N7I403   0.0000
    12 C9          13.0880   -19.1810   -45.2690 C.2          1 N7I403   0.0000
    13 C10         13.2890   -18.9100   -46.7580 C.3          1 N7I403   0.0000
    14 H1          11.7267   -19.9395   -42.9177 H            1 N7I403   0.0000
    15 H2          13.5135   -17.0960   -47.4842 H            1 N7I403   0.0000
    16 H3          16.3306   -16.2116   -39.2699 H            1 N7I403   0.0000
    17 H4          16.5201   -17.1930   -40.5613 H            1 N7I403   0.0000
    18 H5          15.5527   -15.8817   -40.6673 H            1 N7I403   0.0000
    19 H6          13.5293   -18.4266   -38.1061 H            1 N7I403   0.0000
    20 H7          11.4395   -20.1862   -40.5673 H            1 N7I403   0.0000
    21 H8          14.8726   -17.2716   -42.2999 H            1 N7I403   0.0000
    22 H9          14.0483   -17.5954   -44.5787 H            1 N7I403   0.0000
    23 H10         12.5863   -20.0064   -45.0101 H            1 N7I403   0.0000
    24 H11         13.7613   -19.6887   -47.1711 H            1 N7I403   0.0000
    25 H12         12.3959   -18.7932   -47.1924 H            1 N7I403   0.0000
@<TRIPOS>BOND
     1    1    5      ar
     2    1   10      ar
     3    2   13       1
     4    3    6       1
     5    4    7       1
     6    5    7      ar
     7    6    8       1
     8    7    8      ar
     9    8    9      ar
    10    9   10      ar
    11   10   11       1
    12   11   12       2
    13   12   13       1
    14    1   14       1
    15    2   15       1
    16    3   16       1
    17    3   17       1
    18    3   18       1
    19    4   19       1
    20    5   20       1
    21    9   21       1
    22   11   22       1
    23   12   23       1
    24   13   24       1
    25   13   25       1
@<TRIPOS>SUBSTRUCTURE
     1 N7I403      1 GROUP             4 A     N7I     0 **** N7I A 403
