@<TRIPOS>MOLECULE
4mih_FAD_6_ligand
   84    89     1     0     0
SMALL
NO_CHARGES


@<TRIPOS>ATOM
     1 PA          28.3880   -93.6140   -62.5670 P.3          1 FAD801   0.0000
     2 O1A         28.8520   -92.2880   -63.0840 O.co2        1 FAD801   0.0000
     3 O2A         26.9520   -93.9220   -62.9580 O.co2        1 FAD801  -1.0000
     4 O5B         28.4860   -93.6620   -60.9770 O.3          1 FAD801   0.0000
     5 C5B         29.5640   -93.0550   -60.3270 C.3          1 FAD801   0.0000
     6 C4B         29.0690   -92.7010   -58.9400 C.3          1 FAD801   0.0000
     7 O4B         30.1690   -92.6350   -58.0660 O.3          1 FAD801   0.0000
     8 C3B         28.3700   -91.3520   -58.8850 C.3          1 FAD801   0.0000
     9 O3B         27.2330   -91.5390   -58.0810 O.3          1 FAD801   0.0000
    10 C2B         29.3310   -90.4750   -58.1200 C.3          1 FAD801   0.0000
    11 O2B         28.6300   -89.6340   -57.2500 O.3          1 FAD801   0.0000
    12 C1B         30.0320   -91.5020   -57.2610 C.3          1 FAD801   0.0000
    13 N9A         31.3470   -91.0600   -56.8310 N.pl3        1 FAD801   0.0000
    14 C8A         32.3040   -90.5180   -57.6230 C.2          1 FAD801   0.0000
    15 N7A         33.3610   -90.2590   -56.8300 N.2          1 FAD801   0.0000
    16 C5A         33.0940   -90.6250   -55.5580 C.ar         1 FAD801   0.0000
    17 C6A         33.8470   -90.5830   -54.3840 C.ar         1 FAD801   0.0000
    18 N6A         35.1070   -90.1270   -54.3880 N.pl3        1 FAD801   0.0000
    19 N1A         33.2840   -91.0610   -53.2160 N.ar         1 FAD801   0.0000
    20 C2A         32.0050   -91.5740   -53.2270 C.ar         1 FAD801   0.0000
    21 N3A         31.2760   -91.6100   -54.4030 N.ar         1 FAD801   0.0000
    22 C4A         31.8210   -91.1460   -55.5500 C.ar         1 FAD801   0.0000
    23 N1          24.8190   -95.2120   -71.0920 N.2          1 FAD801   0.0000
    24 C2          24.3380   -96.1800   -71.9400 C.2          1 FAD801   0.0000
    25 O2          24.9460   -97.2220   -72.0260 O.2          1 FAD801   0.0000
    26 N3          23.1890   -95.9830   -72.6790 N.pl3        1 FAD801   0.0000
    27 C4          22.4990   -94.7950   -72.5710 C.2          1 FAD801   0.0000
    28 O4          21.4780   -94.6170   -73.2300 O.2          1 FAD801   0.0000
    29 C4X         22.9760   -93.8090   -71.7120 C.2          1 FAD801   0.0000
    30 N5          22.3010   -92.6170   -71.5890 N.2          1 FAD801   0.0000
    31 C5X         22.7880   -91.6410   -70.7500 C.ar         1 FAD801   0.0000
    32 C6          22.1020   -90.4420   -70.6300 C.ar         1 FAD801   0.0000
    33 C7          22.5680   -89.4620   -69.7580 C.ar         1 FAD801   0.0000
    34 C7M         21.8130   -88.1690   -69.6520 C.3          1 FAD801   0.0000
    35 C8          23.7360   -89.6800   -69.0170 C.ar         1 FAD801   0.0000
    36 C8M         24.2750   -88.6400   -68.0750 C.3          1 FAD801   0.0000
    37 C9          24.4260   -90.8850   -69.1450 C.ar         1 FAD801   0.0000
    38 C9A         23.9510   -91.8710   -70.0030 C.ar         1 FAD801   0.0000
    39 N10         24.6270   -93.0770   -70.1160 N.pl3        1 FAD801   0.0000
    40 C10         24.1410   -94.0280   -70.9760 C.2          1 FAD801   0.0000
    41 C1'         25.8910   -93.3630   -69.3500 C.3          1 FAD801   0.0000
    42 C2'         25.6380   -94.3100   -68.1870 C.3          1 FAD801   0.0000
    43 O2'         24.7980   -93.7590   -67.2130 O.3          1 FAD801   0.0000
    44 C3'         26.9410   -94.5650   -67.5070 C.3          1 FAD801   0.0000
    45 O3'         27.7600   -95.2890   -68.3930 O.3          1 FAD801   0.0000
    46 C4'         26.7230   -95.3800   -66.2510 C.3          1 FAD801   0.0000
    47 O4'         25.9050   -94.6680   -65.3260 O.3          1 FAD801   0.0000
    48 C5'         28.1000   -95.7180   -65.6810 C.3          1 FAD801   0.0000
    49 O5'         27.9160   -96.2230   -64.3870 O.3          1 FAD801   0.0000
    50 P           29.1310   -96.2350   -63.3630 P.3          1 FAD801   0.0000
    51 O1P         28.6950   -96.8990   -62.0800 O.co2        1 FAD801   0.0000
    52 O2P         30.3170   -96.9070   -64.0080 O.co2        1 FAD801  -1.0000
    53 O3P         29.4640   -94.6800   -63.1030 O.3          1 FAD801   0.0000
    54 H5B1        29.8452   -92.2297   -60.8168 H            1 FAD801   0.0000
    55 H5B2        30.3361   -93.6878   -60.2694 H            1 FAD801   0.0000
    56 H4B         28.4396   -93.4110   -58.6240 H            1 FAD801   0.0000
    57 H3B         28.1505   -90.9904   -59.7911 H            1 FAD801   0.0000
    58 H5          27.5149   -91.8377   -57.1693 H            1 FAD801   0.0000
    59 H2B         29.9592   -89.9766   -58.7174 H            1 FAD801   0.0000
    60 H7          28.1053   -90.1868   -56.6026 H            1 FAD801   0.0000
    61 H1B         29.4691   -91.7185   -56.4633 H            1 FAD801   0.0000
    62 H8A         32.2380   -90.3442   -58.6056 H            1 FAD801   0.0000
    63 H6A1        35.6330   -90.1036   -53.5378 H            1 FAD801   0.0000
    64 H6A2        35.5214   -89.8101   -55.2412 H            1 FAD801   0.0000
    65 H2A         31.6015   -91.9221   -52.3808 H            1 FAD801   0.0000
    66 H13         22.8579   -96.7008   -73.2915 H            1 FAD801   0.0000
    67 H14         21.2747   -90.2817   -71.1684 H            1 FAD801   0.0000
    68 H7M1        22.2667   -87.5713   -68.9910 H            1 FAD801   0.0000
    69 H7M2        21.7912   -87.7214   -70.5460 H            1 FAD801   0.0000
    70 H7M3        20.8781   -88.3528   -69.3484 H            1 FAD801   0.0000
    71 H8M1        25.1097   -88.9818   -67.6433 H            1 FAD801   0.0000
    72 H8M2        24.4811   -87.8042   -68.5838 H            1 FAD801   0.0000
    73 H8M3        23.5927   -88.4421   -67.3712 H            1 FAD801   0.0000
    74 H21         25.2626   -91.0402   -68.6197 H            1 FAD801   0.0000
    75 H1'1        26.2569   -92.5029   -68.9946 H            1 FAD801   0.0000
    76 H1'2        26.5581   -93.7789   -69.9681 H            1 FAD801   0.0000
    77 H2'         25.2537   -95.1698   -68.5234 H            1 FAD801   0.0000
    78 H25         25.0318   -94.1385   -66.3178 H            1 FAD801   0.0000
    79 H3'         27.3780   -93.6959   -67.2753 H            1 FAD801   0.0000
    80 H27         27.3165   -96.1547   -68.6250 H            1 FAD801   0.0000
    81 H4'         26.2607   -96.2316   -66.4980 H            1 FAD801   0.0000
    82 H29         26.4097   -94.5274   -64.4742 H            1 FAD801   0.0000
    83 H5'1        28.6658   -94.8941   -65.6473 H            1 FAD801   0.0000
    84 H5'2        28.5460   -96.4054   -66.2542 H            1 FAD801   0.0000
@<TRIPOS>BOND
     1    1    2      ar
     2    1    3      ar
     3    1    4       1
     4    1   53       1
     5    4    5       1
     6    5    6       1
     7    6    7       1
     8    6    8       1
     9    7   12       1
    10    8    9       1
    11    8   10       1
    12   10   11       1
    13   10   12       1
    14   12   13       1
    15   13   14       1
    16   13   22       1
    17   14   15       2
    18   15   16       1
    19   16   17      ar
    20   16   22      ar
    21   17   18       1
    22   17   19      ar
    23   19   20      ar
    24   20   21      ar
    25   21   22      ar
    26   23   24       1
    27   23   40       2
    28   24   25       2
    29   24   26       1
    30   26   27       1
    31   27   28       2
    32   27   29       1
    33   29   30       2
    34   29   40       1
    35   30   31       1
    36   31   32      ar
    37   31   38      ar
    38   32   33      ar
    39   33   34       1
    40   33   35      ar
    41   35   36       1
    42   35   37      ar
    43   37   38      ar
    44   38   39       1
    45   39   40       1
    46   39   41       1
    47   41   42       1
    48   42   43       1
    49   42   44       1
    50   44   45       1
    51   44   46       1
    52   46   47       1
    53   46   48       1
    54   48   49       1
    55   49   50       1
    56   50   51      ar
    57   50   52      ar
    58   50   53       1
    59   48   84       1
    60    5   54       1
    61    5   55       1
    62    6   56       1
    63    8   57       1
    64    9   58       1
    65   10   59       1
    66   11   60       1
    67   12   61       1
    68   14   62       1
    69   18   63       1
    70   18   64       1
    71   20   65       1
    72   26   66       1
    73   32   67       1
    74   34   68       1
    75   34   69       1
    76   34   70       1
    77   36   71       1
    78   36   72       1
    79   36   73       1
    80   37   74       1
    81   41   75       1
    82   41   76       1
    83   42   77       1
    84   43   78       1
    85   44   79       1
    86   45   80       1
    87   46   81       1
    88   47   82       1
    89   48   83       1
@<TRIPOS>SUBSTRUCTURE
     1 FAD801      1 GROUP             4 F     FAD     0 **** FAD F 801
