@<TRIPOS>MOLECULE
./coach420/1kwc/ligand.pdb
 14 15 0 0 0
SMALL
GASTEIGER

@<TRIPOS>ATOM
      1  CK1       81.4170   38.1300   16.4370 C.ar  401  BPY401      0.0034
      2  CK2       82.7250   38.7170   16.3620 C.ar  401  BPY401      0.0422
      3  CK3       82.9470   40.0950   15.9790 C.ar  401  BPY401      0.2342
      4  CK4       81.7570   40.7910   15.7040 C.ar  401  BPY401      0.2343
      5  CK5       80.4490   40.2270   15.7760 C.ar  401  BPY401      0.0454
      6  CK6       80.2690   38.8790   16.1460 C.ar  401  BPY401      0.0035
      7  CK7       83.7460   37.7960   16.7370 C.ar  401  BPY401      0.0032
      8  CK8       84.3880   38.0190   17.9670 C.ar  401  BPY401      0.0001
      9  CK9       85.5610   37.2860   18.2970 C.ar  401  BPY401      0.0000
     10  CKA       86.1120   36.3000   17.4290 C.ar  401  BPY401      0.0000
     11  CKB       85.4730   36.0580   16.1980 C.ar  401  BPY401      0.0000
     12  CKC       84.2790   36.7910   15.8620 C.ar  401  BPY401      0.0001
     13  OK1       81.9070   42.0770   15.3100 O.3   401  BPY401     -0.2831
     14  OK2       84.1190   40.9420   15.8440 O.3   401  BPY401     -0.2831
@<TRIPOS>BOND
     1     1     6   ar
     2     1     2   ar
     3     2     3   ar
     4     2     7    1
     5     3     4   ar
     6     3    14    1
     7     4    13    1
     8     4     5   ar
     9     5     6   ar
    10     7    12   ar
    11     7     8   ar
    12     8     9   ar
    13     9    10   ar
    14    10    11   ar
    15    11    12   ar
