@<TRIPOS>MOLECULE
1opm_IYG_1_ligand
   35    35     1     0     0
SMALL
NO_CHARGES


@<TRIPOS>ATOM
     1 CAN         48.5300    23.3330    40.7640 C.3          1 IYG801   0.0000
     2 CN          47.0230    23.3680    40.6190 C.2          1 IYG801   0.0000
     3 ON          46.4720    22.6610    39.7770 O.2          1 IYG801   0.0000
     4 N           46.3580    24.1680    41.4540 N.am         1 IYG801   0.0000
     5 CA          44.9180    24.2950    41.4020 C.3          1 IYG801   0.0000
     6 CB          44.2670    23.2920    42.3380 C.3          1 IYG801   0.0000
     7 CG          44.4560    23.5160    43.8220 C.ar         1 IYG801   0.0000
     8 CD1         43.5210    24.2530    44.5500 C.ar         1 IYG801   0.0000
     9 CE1         43.5340    24.2770    45.9440 C.ar         1 IYG801   0.0000
    10 CD2         45.4450    22.8250    44.5300 C.ar         1 IYG801   0.0000
    11 CE2         45.4860    22.8440    45.9300 C.ar         1 IYG801   0.0000
    12 CZ          44.5340    23.5740    46.6350 C.ar         1 IYG801   0.0000
    13 OH          44.5890    23.5620    48.0150 O.3          1 IYG801   0.0000
    14 I1          41.9750    25.1810    46.9720 I            1 IYG801   0.0000
    15 I2          46.8700    21.6990    46.9500 I            1 IYG801   0.0000
    16 C           44.4060    25.7070    41.6710 C.2          1 IYG801   0.0000
    17 O           45.0520    26.4680    42.3740 O.2          1 IYG801   0.0000
    18 NT          43.2580    26.0460    41.0820 N.am         1 IYG801   0.0000
    19 CAT         42.6590    27.3640    41.2500 C.3          1 IYG801   0.0000
    20 CT          41.1830    27.3680    40.8760 C.2          1 IYG801   0.0000
    21 OT1         40.6950    28.3910    40.3460 O.co2        1 IYG801   0.0000
    22 OT2         40.5020    26.3360    41.0910 O.co2        1 IYG801  -1.0000
    23 HAN1        48.8099    23.9629    41.4885 H            1 IYG801   0.0000
    24 HAN2        48.8209    22.4053    40.9981 H            1 IYG801   0.0000
    25 HAN3        48.9544    23.6077    39.9012 H            1 IYG801   0.0000
    26 H4          46.8686    24.6940    42.1341 H            1 IYG801   0.0000
    27 HA          44.6365    24.0538    40.4733 H            1 IYG801   0.0000
    28 HB1         44.6385    22.3897    42.1192 H            1 IYG801   0.0000
    29 HB2         43.2841    23.3013    42.1541 H            1 IYG801   0.0000
    30 HD1         42.8244    24.7769    44.0597 H            1 IYG801   0.0000
    31 HD2         46.1366    22.3071    44.0265 H            1 IYG801   0.0000
    32 HH          43.9058    24.0622    48.5470 H            1 IYG801   0.0000
    33 HT          42.7931    25.3735    40.5062 H            1 IYG801   0.0000
    34 HAT1        43.1424    28.0158    40.6657 H            1 IYG801   0.0000
    35 HAT2        42.7511    27.6416    42.2063 H            1 IYG801   0.0000
@<TRIPOS>BOND
     1    1    2       1
     2    2    3       2
     3    2    4      am
     4    4    5       1
     5    5    6       1
     6    5   16       1
     7    6    7       1
     8    7    8      ar
     9    7   10      ar
    10    8    9      ar
    11    9   12      ar
    12    9   14       1
    13   10   11      ar
    14   11   12      ar
    15   11   15       1
    16   12   13       1
    17   16   17       2
    18   16   18      am
    19   18   19       1
    20   19   20       1
    21   20   21      ar
    22   20   22      ar
    23    1   23       1
    24    1   24       1
    25    1   25       1
    26    4   26       1
    27    5   27       1
    28    6   28       1
    29    6   29       1
    30    8   30       1
    31   10   31       1
    32   13   32       1
    33   18   33       1
    34   19   34       1
    35   19   35       1
@<TRIPOS>SUBSTRUCTURE
     1 IYG801      1 GROUP             4 A     IYG     0 **** IYG A 801
