@<TRIPOS>MOLECULE
4o6m_C5P_1_ligand
   33    34     1     0     0
SMALL
NO_CHARGES


@<TRIPOS>ATOM
     1 O3P          3.7970    39.3690    35.3820 O.co2        1 C5P422   0.0000
     2 P            4.8450    38.3550    35.7780 P.3          1 C5P422   0.0000
     3 O1P          5.9320    39.0580    36.5560 O.co2        1 C5P422  -1.0000
     4 O2P          4.1660    37.1980    36.4650 O.co2        1 C5P422  -1.0000
     5 O5'          5.4470    37.7810    34.4180 O.3          1 C5P422   0.0000
     6 C5'          6.5700    36.9090    34.4220 C.3          1 C5P422   0.0000
     7 C4'          7.3170    36.9740    33.1130 C.3          1 C5P422   0.0000
     8 O4'          7.6900    38.3500    32.8260 O.3          1 C5P422   0.0000
     9 C3'          8.6390    36.2210    33.0530 C.3          1 C5P422   0.0000
    10 O3'          8.4780    34.8320    32.8340 O.3          1 C5P422   0.0000
    11 C2'          9.3540    36.9410    31.9220 C.3          1 C5P422   0.0000
    12 O2'          8.8100    36.5800    30.6630 O.3          1 C5P422   0.0000
    13 C1'          8.9680    38.3840    32.2240 C.3          1 C5P422   0.0000
    14 N1           9.9210    38.9790    33.1820 N.pl3        1 C5P422   0.0000
    15 C2          11.2600    39.3170    32.7140 C.2          1 C5P422   0.0000
    16 N3          12.2270    39.8820    33.6370 N.2          1 C5P422   0.0000
    17 C4          11.8820    40.0880    34.9940 C.2          1 C5P422   0.0000
    18 C5          10.5430    39.7420    35.4730 C.2          1 C5P422   0.0000
    19 C6           9.5650    39.1710    34.5400 C.2          1 C5P422   0.0000
    20 O2          11.5610    39.1350    31.5530 O.2          1 C5P422   0.0000
    21 N4          12.8380    40.6280    35.8850 N.pl3        1 C5P422   0.0000
    22 H5'1         6.2546    35.9719    34.5712 H            1 C5P422   0.0000
    23 H5'2         7.1867    37.1750    35.1629 H            1 C5P422   0.0000
    24 H4'          6.7207    36.6407    32.3827 H            1 C5P422   0.0000
    25 H3'          9.1406    36.3652    33.9060 H            1 C5P422   0.0000
    26 H5           7.5042    34.6168    32.7605 H            1 C5P422   0.0000
    27 H2'         10.3438    36.8028    31.9562 H            1 C5P422   0.0000
    28 H7           8.4579    35.6451    30.7077 H            1 C5P422   0.0000
    29 H1'          8.9413    38.9209    31.3808 H            1 C5P422   0.0000
    30 H9          10.2962    39.8938    36.4301 H            1 C5P422   0.0000
    31 H10          8.6521    38.9187    34.8608 H            1 C5P422   0.0000
    32 H11         12.5996    40.7756    36.8449 H            1 C5P422   0.0000
    33 H12         13.7525    40.8623    35.5553 H            1 C5P422   0.0000
@<TRIPOS>BOND
     1    1    2      ar
     2    2    3      ar
     3    2    4      ar
     4    2    5       1
     5    5    6       1
     6    6    7       1
     7    7    8       1
     8    7    9       1
     9    8   13       1
    10    9   10       1
    11    9   11       1
    12   11   12       1
    13   11   13       1
    14   13   14       1
    15   14   15       1
    16   14   19       1
    17   15   16       1
    18   15   20       2
    19   16   17       2
    20   17   18       1
    21   17   21       1
    22   18   19       2
    23   21   33       1
    24   21   32       1
    25    6   22       1
    26    6   23       1
    27    7   24       1
    28    9   25       1
    29   10   26       1
    30   11   27       1
    31   12   28       1
    32   13   29       1
    33   18   30       1
    34   19   31       1
@<TRIPOS>SUBSTRUCTURE
     1 C5P422      1 GROUP             4 B     C5P     0 **** C5P B 422
