@<TRIPOS>MOLECULE
3o3p_GDD_1_ligand
   62    65     1     0     0
SMALL
NO_CHARGES


@<TRIPOS>ATOM
     1 N2          47.4150   -23.9290   -12.8100 N.pl3        1 GDD340   0.0000
     2 C2          46.2390   -24.2110   -12.0340 C.2          1 GDD340   0.0000
     3 N1          45.3850   -25.1640   -12.4150 N.pl3        1 GDD340   0.0000
     4 N3          46.0000   -23.4680   -10.9020 N.2          1 GDD340   0.0000
     5 C4          44.8770   -23.6970   -10.1460 C.2          1 GDD340   0.0000
     6 C5          43.9810   -24.6750   -10.5150 C.2          1 GDD340   0.0000
     7 C6          44.2600   -25.4290   -11.7030 C.2          1 GDD340   0.0000
     8 O6          43.5000   -26.2820   -12.0620 O.2          1 GDD340   0.0000
     9 N7          42.9800   -24.6670    -9.5870 N.2          1 GDD340   0.0000
    10 C8          43.2700   -23.6830    -8.6510 C.2          1 GDD340   0.0000
    11 N9          44.3940   -23.0950    -8.9780 N.pl3        1 GDD340   0.0000
    12 C1'         45.0600   -22.0440    -8.2750 C.3          1 GDD340   0.0000
    13 C2'         44.2000   -20.8920    -7.9520 C.3          1 GDD340   0.0000
    14 O2'         44.1890   -20.0330    -9.0470 O.3          1 GDD340   0.0000
    15 C3'         44.8300   -20.3350    -6.7380 C.3          1 GDD340   0.0000
    16 O3'         45.8440   -19.4880    -7.0640 O.3          1 GDD340   0.0000
    17 C4'         45.3710   -21.5150    -6.0170 C.3          1 GDD340   0.0000
    18 O4'         45.6080   -22.4970    -6.9850 O.3          1 GDD340   0.0000
    19 C5'         44.4390   -21.9210    -4.8380 C.3          1 GDD340   0.0000
    20 O5'         43.4500   -22.6950    -5.3010 O.3          1 GDD340   0.0000
    21 PA          41.9910   -22.4940    -4.7020 P.3          1 GDD340   0.0000
    22 O1A         40.9180   -23.1010    -5.6410 O.co2        1 GDD340   0.0000
    23 O2A         41.7680   -20.9950    -4.5190 O.co2        1 GDD340  -1.0000
    24 O3A         41.9700   -23.2180    -3.3140 O.3          1 GDD340   0.0000
    25 PB          41.2230   -22.6100    -1.9980 P.3          1 GDD340   0.0000
    26 O2B         41.8550   -21.2500    -1.6070 O.co2        1 GDD340   0.0000
    27 O3B         39.7170   -22.3840    -2.3260 O.co2        1 GDD340  -1.0000
    28 O1B         41.3370   -23.6190    -0.8200 O.3          1 GDD340   0.0000
    29 C11         42.5320   -23.9950    -0.1920 C.3          1 GDD340   0.0000
    30 O51         42.5840   -25.4360     0.1610 O.3          1 GDD340   0.0000
    31 C51         43.0170   -26.2800    -0.8630 C.3          1 GDD340   0.0000
    32 C61         43.1400   -27.7360    -0.3890 C.3          1 GDD340   0.0000
    33 O6A         44.1590   -28.3710    -0.9700 O.3          1 GDD340   0.0000
    34 C21         43.7780   -23.4970    -0.8720 C.3          1 GDD340   0.0000
    35 O21         44.7170   -23.2990     0.1760 O.3          1 GDD340   0.0000
    36 C31         44.3630   -24.3990    -1.8390 C.3          1 GDD340   0.0000
    37 O31         45.7240   -24.0510    -2.0790 O.3          1 GDD340   0.0000
    38 C41         44.3360   -25.8180    -1.5070 C.3          1 GDD340   0.0000
    39 O41         44.6930   -26.5440    -2.6840 O.3          1 GDD340   0.0000
    40 H1          48.0483   -23.2131   -12.5159 H            1 GDD340   0.0000
    41 H2          47.6001   -24.4486   -13.6441 H            1 GDD340   0.0000
    42 H3          45.5780   -25.6931   -13.2413 H            1 GDD340   0.0000
    43 H4          42.7096   -23.4588    -7.8537 H            1 GDD340   0.0000
    44 H1'         45.8181   -21.7200    -8.8409 H            1 GDD340   0.0000
    45 H2'         43.2714   -21.2016    -7.7474 H            1 GDD340   0.0000
    46 H7          44.5432   -19.1389    -8.7729 H            1 GDD340   0.0000
    47 H3'         44.1495   -19.8646    -6.1762 H            1 GDD340   0.0000
    48 H9          46.5368   -19.9835    -7.5879 H            1 GDD340   0.0000
    49 H4'         46.2545   -21.2535    -5.6283 H            1 GDD340   0.0000
    50 H5'1        44.0520   -21.0991    -4.4201 H            1 GDD340   0.0000
    51 H5'2        44.9660   -22.4260    -4.1544 H            1 GDD340   0.0000
    52 H13         42.5163   -23.5194     0.6875 H            1 GDD340   0.0000
    53 H14         42.3173   -26.2604    -1.5772 H            1 GDD340   0.0000
    54 H15         42.2923   -28.2189    -0.6088 H            1 GDD340   0.0000
    55 H16         43.2797   -27.7415     0.6012 H            1 GDD340   0.0000
    56 H6A         43.8137   -29.1593    -1.4792 H            1 GDD340   0.0000
    57 H18         43.5855   -22.6202    -1.3127 H            1 GDD340   0.0000
    58 H19         44.8765   -24.1656     0.6488 H            1 GDD340   0.0000
    59 H20         43.8663   -24.2817    -2.6989 H            1 GDD340   0.0000
    60 H21         45.8435   -23.0662    -1.9529 H            1 GDD340   0.0000
    61 H22         45.0601   -25.9751    -0.8355 H            1 GDD340   0.0000
    62 H23         45.5774   -26.9897    -2.5453 H            1 GDD340   0.0000
@<TRIPOS>BOND
     1    1    2       1
     2    2    3       1
     3    2    4       2
     4    3    7       1
     5    4    5       1
     6    5    6       2
     7    5   11       1
     8    6    7       1
     9    6    9       1
    10    7    8       2
    11    9   10       2
    12   10   11       1
    13   11   12       1
    14   12   13       1
    15   12   18       1
    16   13   14       1
    17   13   15       1
    18   15   16       1
    19   15   17       1
    20   17   18       1
    21   17   19       1
    22   19   20       1
    23   20   21       1
    24   21   22      ar
    25   21   23      ar
    26   21   24       1
    27   24   25       1
    28   25   26      ar
    29   25   27      ar
    30   25   28       1
    31   28   29       1
    32   29   30       1
    33   29   34       1
    34   30   31       1
    35   31   32       1
    36   31   38       1
    37   32   33       1
    38   34   35       1
    39   34   36       1
    40   36   37       1
    41   36   38       1
    42   38   39       1
    43    1   40       1
    44    1   41       1
    45    3   42       1
    46   10   43       1
    47   12   44       1
    48   13   45       1
    49   14   46       1
    50   15   47       1
    51   16   48       1
    52   17   49       1
    53   19   50       1
    54   19   51       1
    55   39   62       1
    56   38   61       1
    57   29   52       1
    58   31   53       1
    59   32   54       1
    60   32   55       1
    61   33   56       1
    62   34   57       1
    63   35   58       1
    64   36   59       1
    65   37   60       1
@<TRIPOS>SUBSTRUCTURE
     1 GDD340      1 GROUP             4 A     GDD     0 **** GDD A 340
