@<TRIPOS>MOLECULE
4zir_ANP_1_ligand
   44    46     1     0     0
SMALL
NO_CHARGES


@<TRIPOS>ATOM
     1 PG          16.3950    10.9670    19.7010 P.3          1 ANP304   0.0000
     2 O1G         16.9140    10.3620    18.3390 O.co2        1 ANP304   0.0000
     3 O2G         17.2170    10.3940    20.8140 O.co2        1 ANP304  -1.0000
     4 O3G         16.5740    12.5360    19.6590 O.co2        1 ANP304  -1.0000
     5 PB          13.7120    11.8360    20.1760 P.3          1 ANP304   0.0000
     6 O1B         14.3100    13.1770    19.6570 O.co2        1 ANP304   0.0000
     7 O2B         13.4540    11.9490    21.6380 O.co2        1 ANP304  -1.0000
     8 N3B         14.7630    10.5470    19.9050 N.3          1 ANP304   0.0000
     9 PA          11.6250    12.4660    18.4160 P.3          1 ANP304   0.0000
    10 O1A         12.6450    12.9700    17.3890 O.co2        1 ANP304   0.0000
    11 O2A         10.8720    13.5430    19.1000 O.co2        1 ANP304  -1.0000
    12 O3A         12.3580    11.5090    19.4630 O.3          1 ANP304   0.0000
    13 O5'         10.5620    11.5060    17.7440 O.3          1 ANP304   0.0000
    14 C5'          9.7370    10.6480    18.5560 C.3          1 ANP304   0.0000
    15 C4'          8.9760     9.7060    17.6590 C.3          1 ANP304   0.0000
    16 O4'          8.0910    10.4620    16.8080 O.3          1 ANP304   0.0000
    17 C3'          9.8330     8.8250    16.7520 C.3          1 ANP304   0.0000
    18 O3'          9.3900     7.4740    16.7710 O.3          1 ANP304   0.0000
    19 C2'          9.6960     9.4770    15.3690 C.3          1 ANP304   0.0000
    20 O2'          9.6610     8.4840    14.3500 O.3          1 ANP304   0.0000
    21 C1'          8.3460    10.1900    15.4440 C.3          1 ANP304   0.0000
    22 N9           8.3240    11.4550    14.7260 N.pl3        1 ANP304   0.0000
    23 C8           9.0680    12.5730    15.0140 C.2          1 ANP304   0.0000
    24 N7           8.8620    13.5820    14.2070 N.2          1 ANP304   0.0000
    25 C5           7.9080    13.0970    13.3150 C.ar         1 ANP304   0.0000
    26 C6           7.2650    13.6840    12.2110 C.ar         1 ANP304   0.0000
    27 N6           7.4870    14.9320    11.7940 N.pl3        1 ANP304   0.0000
    28 N1           6.3680    12.9290    11.5380 N.ar         1 ANP304   0.0000
    29 C2           6.1400    11.6760    11.9520 C.ar         1 ANP304   0.0000
    30 N3           6.6890    11.0210    12.9780 N.ar         1 ANP304   0.0000
    31 C4           7.5750    11.7980    13.6270 C.ar         1 ANP304   0.0000
    32 H3B         14.6995     9.9277    20.6876 H            1 ANP304   0.0000
    33 H5'1         9.0931    11.2028    19.0828 H            1 ANP304   0.0000
    34 H5'2        10.3137    10.1226    19.1816 H            1 ANP304   0.0000
    35 H4'          8.4184     9.1092    18.2360 H            1 ANP304   0.0000
    36 H3'         10.7870     8.8681    17.0487 H            1 ANP304   0.0000
    37 H6           9.1263     7.1967    15.8471 H            1 ANP304   0.0000
    38 H2'         10.4362    10.1295    15.2067 H            1 ANP304   0.0000
    39 H8          10.0520     8.8562    13.5083 H            1 ANP304   0.0000
    40 H1'          7.6315     9.5899    15.0843 H            1 ANP304   0.0000
    41 H10          9.7133    12.6125    15.7769 H            1 ANP304   0.0000
    42 H11          6.9949    15.2888    10.9999 H            1 ANP304   0.0000
    43 H12          8.1454    15.5104    12.2756 H            1 ANP304   0.0000
    44 H13          5.4673    11.1610    11.4207 H            1 ANP304   0.0000
@<TRIPOS>BOND
     1    1    2      ar
     2    1    3      ar
     3    1    4      ar
     4    1    8       1
     5    5    6      ar
     6    5    7      ar
     7    5    8       1
     8    5   12       1
     9    9   10      ar
    10    9   11      ar
    11    9   12       1
    12    9   13       1
    13   13   14       1
    14   14   15       1
    15   15   16       1
    16   15   17       1
    17   16   21       1
    18   17   18       1
    19   17   19       1
    20   19   20       1
    21   19   21       1
    22   21   22       1
    23   22   23       1
    24   22   31       1
    25   23   24       2
    26   24   25       1
    27   25   26      ar
    28   25   31      ar
    29   26   27       1
    30   26   28      ar
    31   28   29      ar
    32   29   30      ar
    33   30   31      ar
    34   29   44       1
    35   27   43       1
    36   27   42       1
    37    8   32       1
    38   23   41       1
    39   14   33       1
    40   14   34       1
    41   15   35       1
    42   17   36       1
    43   18   37       1
    44   19   38       1
    45   20   39       1
    46   21   40       1
@<TRIPOS>SUBSTRUCTURE
     1 ANP304      1 GROUP             4 A     ANP     0 **** ANP A 304
