@<TRIPOS>MOLECULE
3myk_BIT_1_ligand
   38    41     1     0     0
SMALL
NO_CHARGES


@<TRIPOS>ATOM
     1 O2          21.0880    35.5680   -35.7700 O.2          1 BIT800   0.0000
     2 C4          20.9750    35.4430   -37.0040 C.2          1 BIT800   0.0000
     3 C5          20.1080    36.1450   -37.8360 C.ar         1 BIT800   0.0000
     4 C6          19.0170    36.8740   -37.3220 C.ar         1 BIT800   0.0000
     5 C7          18.1640    37.4860   -38.2350 C.ar         1 BIT800   0.0000
     6 C18         17.0260    38.2900   -37.5880 C.3          1 BIT800   0.0000
     7 C8          18.2980    37.4750   -39.6730 C.ar         1 BIT800   0.0000
     8 C10         20.2640    36.0830   -39.2710 C.ar         1 BIT800   0.0000
     9 C9          19.4220    36.7130   -40.1930 C.ar         1 BIT800   0.0000
    10 C3          21.7020    34.3070   -37.7000 C.3          1 BIT800   0.0000
    11 C11         22.2420    34.7210   -39.0620 C.2          1 BIT800   0.0000
    12 N2          21.3590    35.4060   -39.8350 N.2          1 BIT800   0.0000
    13 O1          20.6300    33.2490   -37.8350 O.3          1 BIT800   0.0000
    14 C2          23.0020    33.7990   -37.0530 C.3          1 BIT800   0.0000
    15 C1          23.7360    33.1220   -38.2240 C.3          1 BIT800   0.0000
    16 N1          23.3360    33.9690   -39.3950 N.pl3        1 BIT800   0.0000
    17 C12         23.8790    33.7540   -40.6790 C.ar         1 BIT800   0.0000
    18 C13         23.7450    34.8760   -41.5960 C.ar         1 BIT800   0.0000
    19 C14         24.3200    34.7780   -42.8850 C.ar         1 BIT800   0.0000
    20 C15         25.0260    33.6300   -43.2590 C.ar         1 BIT800   0.0000
    21 C16         25.1840    32.5670   -42.3750 C.ar         1 BIT800   0.0000
    22 C17         24.6280    32.6190   -41.0780 C.ar         1 BIT800   0.0000
    23 H1          18.8616    36.9487   -36.3370 H            1 BIT800   0.0000
    24 H2          16.4581    38.6982   -38.3027 H            1 BIT800   0.0000
    25 H3          16.4668    37.6819   -37.0245 H            1 BIT800   0.0000
    26 H4          17.4124    39.0132   -37.0156 H            1 BIT800   0.0000
    27 H5          17.6599    37.9594   -40.2715 H            1 BIT800   0.0000
    28 H6          19.5874    36.6418   -41.1767 H            1 BIT800   0.0000
    29 H7          21.0116    32.4439   -38.2891 H            1 BIT800   0.0000
    30 H8          22.8072    33.1425   -36.3243 H            1 BIT800   0.0000
    31 H9          23.5389    34.5575   -36.6836 H            1 BIT800   0.0000
    32 H10         23.4324    32.1765   -38.3420 H            1 BIT800   0.0000
    33 H11         24.7265    33.1395   -38.0875 H            1 BIT800   0.0000
    34 H12         23.2546    35.7026   -41.3197 H            1 BIT800   0.0000
    35 H13         24.2211    35.5338   -43.5323 H            1 BIT800   0.0000
    36 H14         25.4230    33.5723   -44.1750 H            1 BIT800   0.0000
    37 H15         25.6968    31.7576   -42.6613 H            1 BIT800   0.0000
    38 H16         24.7623    31.8578   -40.4435 H            1 BIT800   0.0000
@<TRIPOS>BOND
     1    1    2       2
     2    2    3       1
     3    2   10       1
     4    3    4      ar
     5    3    8      ar
     6    4    5      ar
     7    5    6       1
     8    5    7      ar
     9    7    9      ar
    10    8    9      ar
    11    8   12       1
    12   10   11       1
    13   10   13       1
    14   10   14       1
    15   11   12       2
    16   11   16       1
    17   14   15       1
    18   15   16       1
    19   16   17       1
    20   17   18      ar
    21   17   22      ar
    22   18   19      ar
    23   19   20      ar
    24   20   21      ar
    25   21   22      ar
    26    4   23       1
    27    6   24       1
    28    6   25       1
    29    6   26       1
    30    7   27       1
    31    9   28       1
    32   13   29       1
    33   14   30       1
    34   14   31       1
    35   15   32       1
    36   15   33       1
    37   18   34       1
    38   19   35       1
    39   20   36       1
    40   21   37       1
    41   22   38       1
@<TRIPOS>SUBSTRUCTURE
     1 BIT800      1 GROUP             4 X     BIT     0 **** BIT X 800
