@<TRIPOS>MOLECULE
3qbd_NAD_2_ligand
   70    74     1     0     0
SMALL
NO_CHARGES


@<TRIPOS>ATOM
     1 PA         -15.0710    34.3790     7.7070 P.3          1 NAD400   0.0000
     2 O1A        -15.7980    35.3540     6.8320 O.co2        1 NAD400   0.0000
     3 O2A        -15.5120    33.8160     9.0040 O.co2        1 NAD400  -1.0000
     4 O5B        -13.5710    34.9360     7.7440 O.3          1 NAD400   0.0000
     5 C5B        -12.4760    34.2980     8.4350 C.3          1 NAD400   0.0000
     6 C4B        -11.7480    35.3370     9.3310 C.3          1 NAD400   0.0000
     7 O4B        -10.9030    36.2490     8.6080 O.3          1 NAD400   0.0000
     8 C3B        -12.6840    36.2390    10.1330 C.3          1 NAD400   0.0000
     9 O3B        -12.1970    36.1570    11.4790 O.3          1 NAD400   0.0000
    10 C2B        -12.4960    37.6420     9.5710 C.3          1 NAD400   0.0000
    11 O2B        -12.5560    38.6940    10.5290 O.3          1 NAD400   0.0000
    12 C1B        -11.0720    37.6010     9.0710 C.3          1 NAD400   0.0000
    13 N9A        -10.7990    38.4720     7.9020 N.pl3        1 NAD400   0.0000
    14 C8A        -11.6360    38.7370     6.8810 C.2          1 NAD400   0.0000
    15 N7A        -11.0260    39.5310     5.9730 N.2          1 NAD400   0.0000
    16 C5A         -9.7900    39.7370     6.4530 C.ar         1 NAD400   0.0000
    17 C6A         -8.6370    40.4990     5.9450 C.ar         1 NAD400   0.0000
    18 N6A         -8.7380    41.1420     4.7550 N.pl3        1 NAD400   0.0000
    19 N1A         -7.5130    40.4940     6.7030 N.ar         1 NAD400   0.0000
    20 C2A         -7.4590    39.8300     7.8690 C.ar         1 NAD400   0.0000
    21 N3A         -8.4920    39.1150     8.3410 N.ar         1 NAD400   0.0000
    22 C4A         -9.6460    39.0660     7.6600 C.ar         1 NAD400   0.0000
    23 O3         -14.9270    32.9750     6.9250 O.3          1 NAD400   0.0000
    24 PN         -14.6630    32.8040     5.3530 P.3          1 NAD400   0.0000
    25 O1N        -14.3960    34.0730     4.6260 O.co2        1 NAD400   0.0000
    26 O2N        -13.7180    31.6670     5.1840 O.co2        1 NAD400  -1.0000
    27 O5D        -16.1180    32.2520     4.9280 O.3          1 NAD400   0.0000
    28 C5D        -16.8170    31.3060     5.7560 C.3          1 NAD400   0.0000
    29 C4D        -18.3100    31.4340     5.5030 C.3          1 NAD400   0.0000
    30 O4D        -18.5670    31.5510     4.1030 O.3          1 NAD400   0.0000
    31 C3D        -19.0060    30.1800     5.9520 C.3          1 NAD400   0.0000
    32 O3D        -19.9940    30.5690     6.8900 O.3          1 NAD400   0.0000
    33 C2D        -19.6260    29.6070     4.6870 C.3          1 NAD400   0.0000
    34 O2D        -20.8980    28.9790     4.8870 O.3          1 NAD400   0.0000
    35 C1D        -19.7380    30.8150     3.7980 C.3          1 NAD400   0.0000
    36 N1N        -19.8170    30.4240     2.3900 N.ar         1 NAD400   1.0000
    37 C2N        -20.9120    30.7850     1.6830 C.ar         1 NAD400   0.0000
    38 C3N        -21.0910    30.4390     0.3370 C.ar         1 NAD400   0.0000
    39 C7N        -22.3350    30.8570    -0.4550 C.2          1 NAD400   0.0000
    40 O7N        -22.4280    30.5710    -1.6320 O.2          1 NAD400   0.0000
    41 N7N        -23.3370    31.5670     0.0830 N.am         1 NAD400   0.0000
    42 C4N        -20.0630    29.7220    -0.2650 C.ar         1 NAD400   0.0000
    43 C5N        -18.9370    29.3570     0.4610 C.ar         1 NAD400   0.0000
    44 C6N        -18.8370    29.7260     1.8040 C.ar         1 NAD400   0.0000
    45 H5B1       -11.8321    33.9262     7.7663 H            1 NAD400   0.0000
    46 H5B2       -12.8294    33.5565     9.0053 H            1 NAD400   0.0000
    47 H4B        -11.1749    34.8355     9.9791 H            1 NAD400   0.0000
    48 H3B        -13.6352    35.9381    10.0652 H            1 NAD400   0.0000
    49 H5         -12.7637    36.7271    12.0738 H            1 NAD400   0.0000
    50 H2B        -13.1319    37.8109     8.8180 H            1 NAD400   0.0000
    51 H7         -13.1629    38.4285    11.2781 H            1 NAD400   0.0000
    52 H1B        -10.4331    37.8001     9.8141 H            1 NAD400   0.0000
    53 H8A        -12.5730    38.3959     6.8055 H            1 NAD400   0.0000
    54 H6A1        -7.9612    41.6625     4.4004 H            1 NAD400   0.0000
    55 H6A2        -9.5892    41.0956     4.2323 H            1 NAD400   0.0000
    56 H2A         -6.6166    39.8699     8.4063 H            1 NAD400   0.0000
    57 H5D1       -16.6228    31.4954     6.7185 H            1 NAD400   0.0000
    58 H5D2       -16.5174    30.3787     5.5317 H            1 NAD400   0.0000
    59 H4D        -18.6769    32.2268     5.9897 H            1 NAD400   0.0000
    60 H3D        -18.3584    29.5355     6.3586 H            1 NAD400   0.0000
    61 H17        -19.5569    31.0273     7.6638 H            1 NAD400   0.0000
    62 H2D        -18.9934    28.9506     4.2759 H            1 NAD400   0.0000
    63 H19        -21.2382    28.6296     4.0140 H            1 NAD400   0.0000
    64 H1D        -20.5473    31.3464     4.0483 H            1 NAD400   0.0000
    65 H2N        -21.6226    31.3205     2.1393 H            1 NAD400   0.0000
    66 H7N1       -24.1289    31.8161    -0.4746 H            1 NAD400   0.0000
    67 H7N2       -23.2925    31.8474     1.0418 H            1 NAD400   0.0000
    68 H4N        -20.1352    29.4670    -1.2292 H            1 NAD400   0.0000
    69 H5N        -18.2039    28.8343     0.0257 H            1 NAD400   0.0000
    70 H6N        -18.0278    29.4670     2.3314 H            1 NAD400   0.0000
@<TRIPOS>BOND
     1    1    2      ar
     2    1    3      ar
     3    1    4       1
     4    1   23       1
     5    4    5       1
     6    5    6       1
     7    6    7       1
     8    6    8       1
     9    7   12       1
    10    8    9       1
    11    8   10       1
    12   10   11       1
    13   10   12       1
    14   12   13       1
    15   13   14       1
    16   13   22       1
    17   14   15       2
    18   15   16       1
    19   16   17      ar
    20   16   22      ar
    21   17   18       1
    22   17   19      ar
    23   19   20      ar
    24   20   21      ar
    25   21   22      ar
    26   23   24       1
    27   24   25      ar
    28   24   26      ar
    29   24   27       1
    30   27   28       1
    31   28   29       1
    32   29   30       1
    33   29   31       1
    34   30   35       1
    35   31   32       1
    36   31   33       1
    37   33   34       1
    38   33   35       1
    39   35   36       1
    40   36   37      ar
    41   36   44      ar
    42   37   38      ar
    43   38   39       1
    44   38   42      ar
    45   39   40       2
    46   39   41      am
    47   42   43      ar
    48   43   44      ar
    49   44   70       1
    50    5   45       1
    51    5   46       1
    52    6   47       1
    53    8   48       1
    54    9   49       1
    55   10   50       1
    56   11   51       1
    57   12   52       1
    58   14   53       1
    59   18   54       1
    60   18   55       1
    61   20   56       1
    62   43   69       1
    63   28   57       1
    64   28   58       1
    65   29   59       1
    66   31   60       1
    67   32   61       1
    68   33   62       1
    69   34   63       1
    70   35   64       1
    71   37   65       1
    72   41   66       1
    73   41   67       1
    74   42   68       1
@<TRIPOS>SUBSTRUCTURE
     1 NAD400      1 GROUP             4 B     NAD     0 **** NAD B 400
