@<TRIPOS>MOLECULE
3go6_ADP_1_ligand
   39    41     1     0     0
SMALL
NO_CHARGES


@<TRIPOS>ATOM
     1 PB         -10.6540    -2.1870    27.3120 P.3          1 ADP305   0.0000
     2 O1B        -10.6370    -0.6690    27.2590 O.co2        1 ADP305   0.0000
     3 O2B        -12.0450    -2.7610    27.4750 O.co2        1 ADP305  -1.0000
     4 O3B         -9.8220    -2.8300    26.2300 O.co2        1 ADP305  -1.0000
     5 PA         -10.5660    -2.5080    30.2050 P.3          1 ADP305   0.0000
     6 O1A        -10.8980    -1.0620    30.5450 O.co2        1 ADP305   0.0000
     7 O2A        -11.6450    -3.5630    30.3120 O.co2        1 ADP305  -1.0000
     8 O3A         -9.9040    -2.5540    28.7100 O.3          1 ADP305   0.0000
     9 O5'         -9.3630    -2.9640    31.1640 O.3          1 ADP305   0.0000
    10 C5'         -8.8830    -4.3040    31.2450 C.3          1 ADP305   0.0000
    11 C4'         -7.6300    -4.2470    32.1030 C.3          1 ADP305   0.0000
    12 O4'         -6.7920    -3.1780    31.6560 O.3          1 ADP305   0.0000
    13 C3'         -7.9230    -3.9310    33.5630 C.3          1 ADP305   0.0000
    14 O3'         -8.1220    -5.1250    34.3100 O.3          1 ADP305   0.0000
    15 C2'         -6.7080    -3.1340    34.0220 C.3          1 ADP305   0.0000
    16 O2'         -5.6250    -3.9590    34.4560 O.3          1 ADP305   0.0000
    17 C1'         -6.2490    -2.4330    32.7590 C.3          1 ADP305   0.0000
    18 N9          -6.6840    -1.0070    32.7300 N.pl3        1 ADP305   0.0000
    19 C8          -7.6700    -0.4740    31.9680 C.2          1 ADP305   0.0000
    20 N7          -7.8020     0.8630    32.1910 N.2          1 ADP305   0.0000
    21 C5          -6.8830     1.2100    33.1160 C.ar         1 ADP305   0.0000
    22 C6          -6.4640     2.4590    33.8090 C.ar         1 ADP305   0.0000
    23 N6          -7.0830     3.6360    33.5520 N.pl3        1 ADP305   0.0000
    24 N1          -5.4560     2.3800    34.7130 N.ar         1 ADP305   0.0000
    25 C2          -4.8330     1.2160    34.9940 C.ar         1 ADP305   0.0000
    26 N3          -5.1600     0.0500    34.4010 N.ar         1 ADP305   0.0000
    27 C4          -6.1490    -0.0230    33.4710 C.ar         1 ADP305   0.0000
    28 H5'1        -8.6644    -4.6508    30.3329 H            1 ADP305   0.0000
    29 H5'2        -9.5692    -4.8941    31.6704 H            1 ADP305   0.0000
    30 H4'         -7.1358    -5.1139    32.0374 H            1 ADP305   0.0000
    31 H3'         -8.7407    -3.3585    33.6236 H            1 ADP305   0.0000
    32 H5          -8.3125    -4.8935    35.2640 H            1 ADP305   0.0000
    33 H2'         -6.9595    -2.4720    34.7281 H            1 ADP305   0.0000
    34 H7          -4.7586    -3.4920    34.2792 H            1 ADP305   0.0000
    35 H1'         -5.2507    -2.4682    32.7135 H            1 ADP305   0.0000
    36 H9          -8.2293    -0.9960    31.3240 H            1 ADP305   0.0000
    37 H10         -6.7917     4.4678    34.0245 H            1 ADP305   0.0000
    38 H11         -7.8313     3.6732    32.8897 H            1 ADP305   0.0000
    39 H12         -4.0972     1.2185    35.6712 H            1 ADP305   0.0000
@<TRIPOS>BOND
     1    1    2      ar
     2    1    3      ar
     3    1    4      ar
     4    1    8       1
     5    5    6      ar
     6    5    7      ar
     7    5    8       1
     8    5    9       1
     9    9   10       1
    10   10   11       1
    11   11   12       1
    12   11   13       1
    13   12   17       1
    14   13   14       1
    15   13   15       1
    16   15   16       1
    17   15   17       1
    18   17   18       1
    19   18   19       1
    20   18   27       1
    21   19   20       2
    22   20   21       1
    23   21   22      ar
    24   21   27      ar
    25   22   23       1
    26   22   24      ar
    27   24   25      ar
    28   25   26      ar
    29   26   27      ar
    30   25   39       1
    31   23   38       1
    32   23   37       1
    33   10   28       1
    34   10   29       1
    35   11   30       1
    36   13   31       1
    37   14   32       1
    38   15   33       1
    39   16   34       1
    40   17   35       1
    41   19   36       1
@<TRIPOS>SUBSTRUCTURE
     1 ADP305      1 GROUP             4 B     ADP     0 **** ADP B 305
