@<TRIPOS>MOLECULE
2qpy_DHT_1_ligand
   51    54     1     0     0
SMALL
NO_CHARGES


@<TRIPOS>ATOM
     1 C1          26.5790     5.2040     4.7540 C.3          1 DHT931   0.0000
     2 C2          25.8410     6.4740     5.2510 C.3          1 DHT931   0.0000
     3 C3          24.3790     6.3210     4.7660 C.2          1 DHT931   0.0000
     4 O3          23.8760     7.2830     4.1350 O.2          1 DHT931   0.0000
     5 C4          23.6430     5.0540     5.0510 C.3          1 DHT931   0.0000
     6 C5          24.4420     3.8110     4.5180 C.3          1 DHT931   0.0000
     7 C6          23.7370     2.4450     4.8220 C.3          1 DHT931   0.0000
     8 C7          24.5710     1.2740     4.2370 C.3          1 DHT931   0.0000
     9 C8          26.0280     1.2270     4.7940 C.3          1 DHT931   0.0000
    10 C9          26.7310     2.5970     4.5150 C.3          1 DHT931   0.0000
    11 C10         25.9380     3.8350     5.1240 C.3          1 DHT931   0.0000
    12 C11         28.2040     2.5100     5.0490 C.3          1 DHT931   0.0000
    13 C12         29.0520     1.3570     4.5460 C.3          1 DHT931   0.0000
    14 C13         28.3440    -0.0210     4.7210 C.3          1 DHT931   0.0000
    15 C14         26.8670     0.0820     4.1570 C.3          1 DHT931   0.0000
    16 C15         26.3590    -1.3550     4.3930 C.3          1 DHT931   0.0000
    17 C16         27.5850    -2.2170     3.9650 C.3          1 DHT931   0.0000
    18 C17         28.7610    -1.2050     3.8750 C.3          1 DHT931   0.0000
    19 O17         29.9720    -1.8590     4.3280 O.3          1 DHT931   0.0000
    20 C18         28.3970    -0.3890     6.2690 C.3          1 DHT931   0.0000
    21 C19         25.8750     3.6730     6.6900 C.3          1 DHT931   0.0000
    22 H1          27.5023     5.2201     5.1377 H            1 DHT931   0.0000
    23 H2          26.6316     5.2546     3.7567 H            1 DHT931   0.0000
    24 H3          26.2552     7.2949     4.8580 H            1 DHT931   0.0000
    25 H4          25.8740     6.5291     6.2489 H            1 DHT931   0.0000
    26 H5          22.7497     5.0861     4.6026 H            1 DHT931   0.0000
    27 H6          23.5170     4.9634     6.0389 H            1 DHT931   0.0000
    28 H7          24.5153     3.9004     3.5247 H            1 DHT931   0.0000
    29 H8          22.8270     2.4427     4.4073 H            1 DHT931   0.0000
    30 H9          23.6526     2.3292     5.8117 H            1 DHT931   0.0000
    31 H10         24.6127     1.3775     3.2432 H            1 DHT931   0.0000
    32 H11         24.1150     0.4134     4.4637 H            1 DHT931   0.0000
    33 H12         25.9883     1.0830     5.7828 H            1 DHT931   0.0000
    34 H13         26.7736     2.7208     3.5236 H            1 DHT931   0.0000
    35 H14         28.1599     2.4398     6.0456 H            1 DHT931   0.0000
    36 H15         28.6676     3.3588     4.7948 H            1 DHT931   0.0000
    37 H16         29.9116     1.3437     5.0567 H            1 DHT931   0.0000
    38 H17         29.2435     1.4988     3.5748 H            1 DHT931   0.0000
    39 H18         26.9171     0.2399     3.1708 H            1 DHT931   0.0000
    40 H19         25.5605    -1.5544     3.8251 H            1 DHT931   0.0000
    41 H20         26.1297    -1.5044     5.3548 H            1 DHT931   0.0000
    42 H21         27.4213    -2.6482     3.0777 H            1 DHT931   0.0000
    43 H22         27.7769    -2.9219     4.6478 H            1 DHT931   0.0000
    44 H23         28.8760    -0.9119     2.9259 H            1 DHT931   0.0000
    45 H24         30.7291    -1.2058     4.3133 H            1 DHT931   0.0000
    46 H25         27.9497    -1.2710     6.4175 H            1 DHT931   0.0000
    47 H26         29.3503    -0.4445     6.5660 H            1 DHT931   0.0000
    48 H27         27.9243     0.3173     6.7959 H            1 DHT931   0.0000
    49 H28         25.4620     2.7911     6.9175 H            1 DHT931   0.0000
    50 H29         26.8003     3.7149     7.0669 H            1 DHT931   0.0000
    51 H30         25.3227     4.4101     7.0794 H            1 DHT931   0.0000
@<TRIPOS>BOND
     1    1    2       1
     2    1   11       1
     3    2    3       1
     4    3    4       2
     5    3    5       1
     6    5    6       1
     7    6    7       1
     8    6   11       1
     9    7    8       1
    10    8    9       1
    11    9   10       1
    12    9   15       1
    13   10   11       1
    14   10   12       1
    15   11   21       1
    16   12   13       1
    17   13   14       1
    18   14   15       1
    19   14   18       1
    20   14   20       1
    21   15   16       1
    22   16   17       1
    23   17   18       1
    24   18   19       1
    25    1   22       1
    26    1   23       1
    27    2   24       1
    28    2   25       1
    29    5   26       1
    30    5   27       1
    31    6   28       1
    32    7   29       1
    33    7   30       1
    34    8   31       1
    35    8   32       1
    36    9   33       1
    37   10   34       1
    38   12   35       1
    39   12   36       1
    40   13   37       1
    41   13   38       1
    42   15   39       1
    43   16   40       1
    44   16   41       1
    45   17   42       1
    46   17   43       1
    47   18   44       1
    48   19   45       1
    49   20   46       1
    50   20   47       1
    51   20   48       1
    52   21   49       1
    53   21   50       1
    54   21   51       1
@<TRIPOS>SUBSTRUCTURE
     1 DHT931      1 GROUP             4 A     DHT     0 **** DHT A 931
