@<TRIPOS>MOLECULE
1oon_FMN_2_ligand
   50    52     1     0     0
SMALL
NO_CHARGES


@<TRIPOS>ATOM
     1 N1          19.8990   -33.5970    50.1300 N.2          1 FMN360   0.0000
     2 C2          21.1910   -33.3890    50.5250 C.2          1 FMN360   0.0000
     3 O2          22.1470   -33.8720    49.9660 O.2          1 FMN360   0.0000
     4 N3          21.4390   -32.5460    51.6650 N.pl3        1 FMN360   0.0000
     5 C4          20.4860   -31.8880    52.3810 C.2          1 FMN360   0.0000
     6 O4          20.7970   -31.1710    53.3490 O.2          1 FMN360   0.0000
     7 C4A         19.1020   -32.0610    51.9090 C.2          1 FMN360   0.0000
     8 N5          18.0940   -31.4060    52.4910 N.2          1 FMN360   0.0000
     9 C5A         16.8710   -31.4050    51.8740 C.ar         1 FMN360   0.0000
    10 C6          15.8180   -30.4990    52.3260 C.ar         1 FMN360   0.0000
    11 C7          14.6260   -30.3460    51.6920 C.ar         1 FMN360   0.0000
    12 C7M         13.5650   -29.3410    52.1380 C.3          1 FMN360   0.0000
    13 C8          14.3350   -31.1870    50.5150 C.ar         1 FMN360   0.0000
    14 C8M         13.0710   -31.0440    49.7350 C.3          1 FMN360   0.0000
    15 C9          15.2820   -32.1140    50.1280 C.ar         1 FMN360   0.0000
    16 C9A         16.5540   -32.2300    50.7200 C.ar         1 FMN360   0.0000
    17 N10         17.6110   -33.0580    50.2400 N.pl3        1 FMN360   0.0000
    18 C10         18.8990   -32.9540    50.7300 C.2          1 FMN360   0.0000
    19 C1'         17.3930   -33.9790    49.1090 C.3          1 FMN360   0.0000
    20 C2'         16.4560   -35.1340    49.4410 C.3          1 FMN360   0.0000
    21 O2'         17.1080   -36.2390    50.0790 O.3          1 FMN360   0.0000
    22 C3'         15.8000   -35.5910    48.1220 C.3          1 FMN360   0.0000
    23 O3'         14.8330   -34.5680    47.7570 O.3          1 FMN360   0.0000
    24 C4'         15.0960   -36.9240    48.1730 C.3          1 FMN360   0.0000
    25 O4'         16.0420   -37.9860    48.4520 O.3          1 FMN360   0.0000
    26 C5'         14.3610   -37.2960    46.9030 C.3          1 FMN360   0.0000
    27 O5'         15.3000   -37.3750    45.8160 O.3          1 FMN360   0.0000
    28 P           15.2220   -36.4400    44.5450 P.3          1 FMN360   0.0000
    29 O1P         16.3670   -36.8310    43.6600 O.co2        1 FMN360   0.0000
    30 O2P         15.2410   -35.0130    44.9730 O.co2        1 FMN360  -1.0000
    31 O3P         13.8670   -36.8220    43.8810 O.co2        1 FMN360  -1.0000
    32 H1          22.3895   -32.4344    51.9550 H            1 FMN360   0.0000
    33 H2          15.9844   -29.9592    53.1512 H            1 FMN360   0.0000
    34 H7M1        12.7733   -29.4002    51.5299 H            1 FMN360   0.0000
    35 H7M2        13.2822   -29.5483    53.0745 H            1 FMN360   0.0000
    36 H7M3        13.9451   -28.4168    52.1014 H            1 FMN360   0.0000
    37 H8M1        13.0678   -31.7018    48.9818 H            1 FMN360   0.0000
    38 H8M2        12.2887   -31.2183    50.3331 H            1 FMN360   0.0000
    39 H8M3        13.0093   -30.1161    49.3674 H            1 FMN360   0.0000
    40 H9          15.0508   -32.7400    49.3832 H            1 FMN360   0.0000
    41 H1'1        18.2768   -34.3570    48.8332 H            1 FMN360   0.0000
    42 H1'2        17.0004   -33.4607    48.3493 H            1 FMN360   0.0000
    43 H2'         15.7391   -34.7949    50.0501 H            1 FMN360   0.0000
    44 H13         17.8214   -36.5979    49.4771 H            1 FMN360   0.0000
    45 H3'         16.5044   -35.6302    47.4133 H            1 FMN360   0.0000
    46 H15         14.7454   -34.5322    46.7615 H            1 FMN360   0.0000
    47 H4'         14.4314   -36.8959    48.9197 H            1 FMN360   0.0000
    48 H17         16.9382   -37.7396    48.0830 H            1 FMN360   0.0000
    49 H5'1        13.6723   -36.6001    46.6996 H            1 FMN360   0.0000
    50 H5'2        13.9139   -38.1823    47.0232 H            1 FMN360   0.0000
@<TRIPOS>BOND
     1    1    2       1
     2    1   18       2
     3    2    3       2
     4    2    4       1
     5    4    5       1
     6    5    6       2
     7    5    7       1
     8    7    8       2
     9    7   18       1
    10    8    9       1
    11    9   10      ar
    12    9   16      ar
    13   10   11      ar
    14   11   12       1
    15   11   13      ar
    16   13   14       1
    17   13   15      ar
    18   15   16      ar
    19   16   17       1
    20   17   18       1
    21   17   19       1
    22   19   20       1
    23   20   21       1
    24   20   22       1
    25   22   23       1
    26   22   24       1
    27   24   25       1
    28   24   26       1
    29   26   27       1
    30   27   28       1
    31   28   29      ar
    32   28   30      ar
    33   28   31      ar
    34    4   32       1
    35   10   33       1
    36   12   34       1
    37   12   35       1
    38   12   36       1
    39   14   37       1
    40   14   38       1
    41   14   39       1
    42   15   40       1
    43   19   41       1
    44   19   42       1
    45   20   43       1
    46   21   44       1
    47   22   45       1
    48   23   46       1
    49   24   47       1
    50   25   48       1
    51   26   49       1
    52   26   50       1
@<TRIPOS>SUBSTRUCTURE
     1 FMN360      1 GROUP             4 A     FMN     0 **** FMN A 360
