@<TRIPOS>MOLECULE
./coach420/1of8/ligand.pdb
 19 14 0 0 0
SMALL
GASTEIGER

@<TRIPOS>ATOM
      1 CO        172.2890   34.4070   -0.9420 Co.oh 1372  CO1372      0.0000
      2  O1       172.5680   36.2120    1.9990 O.3   1373  PEP1373     0.0000
      3  O2'      171.1130   37.7500    2.0430 O.3   1373  PEP1373     0.0000
      4  C2       170.5020   35.4810    2.7550 C.2   1373  PEP1373     0.0000
      5  C3       170.7220   34.3040    3.3100 C.2   1373  PEP1373     0.0000
      6  O2       169.1880   36.0000    2.5660 O.2   1373  PEP1373     0.0000
      7  P        167.8280   35.4800    3.2600 P.3   1373  PEP1373     0.0000
      8  O1P      167.5460   34.1390    2.6450 O.2   1373  PEP1373     0.0000
      9  O2P      168.1240   35.4750    4.7470 O.3   1373  PEP1373     0.0000
     10  O3P      166.9010   36.5850    2.8180 O.3   1373  PEP1373     0.0000
     11  C1       171.0610   31.1000    2.1830 C.3   1374  G3P1374     0.0000
     12  C2       170.7930   30.1970    1.0070 C.3   1374  G3P1374     0.0000
     13  O2       169.8530   30.8050    0.1340 O.3   1374  G3P1374     0.0000
     14  C3       170.2590   28.8640    1.5410 C.3   1374  G3P1374     0.0000
     15  O1P      170.6720   27.9160    0.5940 O.3   1374  G3P1374     0.0000
     16  O4P      170.6160   25.8540    2.0510 O.2   1374  G3P1374     0.0000
     17  O2P      170.8740   25.7220   -0.3960 O.3   1374  G3P1374     0.0000
     18  O3P      168.6480   26.3710    0.4900 O.3   1374  G3P1374     0.0000
     19  P        170.1610   26.4130    0.7120 P.3   1374  G3P1374     0.0000
@<TRIPOS>BOND
     1     4     6    1
     2     4     5    2
     3     6     7    1
     4     7     8    2
     5     7    10    1
     6     7     9    1
     7    11    12    1
     8    12    13    1
     9    12    14    1
    10    14    15    1
    11    15    19    1
    12    16    19    2
    13    17    19    1
    14    18    19    1
