@<TRIPOS>MOLECULE
2z7h_GG3_1_ligand
   46    46     1     0     0
SMALL
NO_CHARGES


@<TRIPOS>ATOM
     1 C2          29.2020    47.4270     8.0120 C.3          1 GG31302   0.0000
     2 C6          30.9280    48.4100     9.3830 C.3          1 GG31302   0.0000
     3 C7          29.5880    46.1220     7.3130 C.3          1 GG31302   0.0000
     4 C8          29.0040    46.1970     5.9010 C.3          1 GG31302   0.0000
     5 O16         29.3100    43.5190     5.0770 O.co2        1 GG31302   0.0000
     6 P14         29.8630    44.9970     4.7620 P.3          1 GG31302   0.0000
     7 O17         29.3340    45.4200     3.2990 O.co2        1 GG31302  -1.0000
     8 O15         31.3390    45.0760     4.8520 O.co2        1 GG31302  -1.0000
     9 P9          27.1620    45.8940     5.9230 P.3          1 GG31302   0.0000
    10 O11         26.9240    44.3870     6.4390 O.co2        1 GG31302   0.0000
    11 O10         26.7150    45.9160     4.3750 O.co2        1 GG31302  -1.0000
    12 O12         26.4210    46.9070     6.7080 O.co2        1 GG31302  -1.0000
    13 O13         29.2630    47.5120     5.4030 O.3          1 GG31302   0.0000
    14 N13         29.7840    47.4880     9.3600 N.4          1 GG31302   1.0000
    15 C21         28.7470    47.9660    10.2870 C.3          1 GG31302   0.0000
    16 C22         31.9130    48.0770     8.2590 C.3          1 GG31302   0.0000
    17 C26         33.2440    48.8010     8.4730 C.3          1 GG31302   0.0000
    18 C27         33.0650    50.3180     8.5670 C.3          1 GG31302   0.0000
    19 C28         34.4010    50.9860     8.9020 C.ar         1 GG31302   0.0000
    20 C33         34.5750    51.6120    10.1300 C.ar         1 GG31302   0.0000
    21 C32         35.8100    52.1600    10.4630 C.ar         1 GG31302   0.0000
    22 C31         36.8690    52.0840     9.5660 C.ar         1 GG31302   0.0000
    23 C30         36.6930    51.4630     8.3340 C.ar         1 GG31302   0.0000
    24 C29         35.4590    50.9150     8.0020 C.ar         1 GG31302   0.0000
    25 H1          28.2058    47.4793     8.0822 H            1 GG31302   0.0000
    26 H2          29.5392    48.1995     7.4739 H            1 GG31302   0.0000
    27 H3          31.3956    48.3313    10.2634 H            1 GG31302   0.0000
    28 H4          30.5977    49.3463     9.2635 H            1 GG31302   0.0000
    29 H5          29.2044    45.3402     7.8045 H            1 GG31302   0.0000
    30 H6          30.5832    46.0337     7.2711 H            1 GG31302   0.0000
    31 H7          28.5020    48.1150     5.6424 H            1 GG31302   0.0000
    32 H8          29.1237    48.0148    11.2121 H            1 GG31302   0.0000
    33 H9          28.4399    48.8746    10.0038 H            1 GG31302   0.0000
    34 H10         27.9724    47.3337    10.2754 H            1 GG31302   0.0000
    35 H11         31.5213    48.3622     7.3842 H            1 GG31302   0.0000
    36 H12         32.0746    47.0902     8.2460 H            1 GG31302   0.0000
    37 H13         33.8505    48.5948     7.7051 H            1 GG31302   0.0000
    38 H14         33.6574    48.4718     9.3220 H            1 GG31302   0.0000
    39 H15         32.4009    50.5288     9.2843 H            1 GG31302   0.0000
    40 H16         32.7315    50.6665     7.6910 H            1 GG31302   0.0000
    41 H17         33.8127    51.6688    10.7747 H            1 GG31302   0.0000
    42 H18         35.9356    52.6086    11.3479 H            1 GG31302   0.0000
    43 H19         37.7572    52.4757     9.8063 H            1 GG31302   0.0000
    44 H20         37.4538    51.4106     7.6871 H            1 GG31302   0.0000
    45 H21         35.3321    50.4696     7.1157 H            1 GG31302   0.0000
    46 H22         30.0845    46.5751     9.6362 H            1 GG31302   0.0000
@<TRIPOS>BOND
     1    1    3       1
     2    1   14       1
     3    2   14       1
     4    2   16       1
     5    3    4       1
     6    4    6       1
     7    4    9       1
     8    4   13       1
     9    5    6      ar
    10    6    7      ar
    11    6    8      ar
    12    9   10      ar
    13    9   11      ar
    14    9   12      ar
    15   14   15       1
    16   16   17       1
    17   17   18       1
    18   18   19       1
    19   19   20      ar
    20   19   24      ar
    21   20   21      ar
    22   21   22      ar
    23   22   23      ar
    24   23   24      ar
    25    1   25       1
    26    1   26       1
    27    2   27       1
    28    2   28       1
    29    3   29       1
    30    3   30       1
    31   24   45       1
    32   23   44       1
    33   22   43       1
    34   21   42       1
    35   13   31       1
    36   15   32       1
    37   15   33       1
    38   15   34       1
    39   16   35       1
    40   16   36       1
    41   17   37       1
    42   17   38       1
    43   18   39       1
    44   18   40       1
    45   20   41       1
    46   14   46       1
@<TRIPOS>SUBSTRUCTURE
     1 GG31302     1 GROUP             4 A     GG3     0 **** GG3 A1302
