@<TRIPOS>MOLECULE
3nh8_DC2_1_ligand
   24    23     1     0     0
SMALL
NO_CHARGES


@<TRIPOS>ATOM
     1 O1         -10.3030   -33.7700    -9.5750 O.co2        1 DC2322   0.0000
     2 CL1         -6.4240   -30.4500    -8.1260 Cl           1 DC2322   0.0000
     3 C2         -10.6520   -34.2800    -8.4760 C.2          1 DC2322   0.0000
     4 CL2         -6.8340   -34.6870    -6.9940 Cl           1 DC2322   0.0000
     5 C4         -11.2210   -33.3560    -7.3920 C.3          1 DC2322   0.0000
     6 N          -12.0600   -34.1190    -6.4710 N.am         1 DC2322   0.0000
     7 C6         -12.8670   -35.0530    -7.2190 C.2          1 DC2322   0.0000
     8 O7         -13.5720   -34.6040    -8.3510 O.2          1 DC2322   0.0000
     9 C8         -13.0250   -36.4780    -6.7340 C.3          1 DC2322   0.0000
    10 C9         -10.1630   -32.6630    -6.5080 C.3          1 DC2322   0.0000
    11 S10         -8.9330   -31.4390    -7.1690 S.3          1 DC2322   0.0000
    12 C11         -7.3720   -31.9980    -8.0210 C.3          1 DC2322   0.0000
    13 C12         -6.3570   -33.0020    -7.3920 C.3          1 DC2322   0.0000
    14 OXT        -10.5860   -35.4880    -8.1890 O.co2        1 DC2322  -1.0000
    15 H1         -11.7821   -32.6541    -7.8308 H            1 DC2322   0.0000
    16 H2         -12.0731   -34.0109    -5.4769 H            1 DC2322   0.0000
    17 H3         -13.6121   -36.9824    -7.3671 H            1 DC2322   0.0000
    18 H4         -12.1274   -36.9167    -6.6903 H            1 DC2322   0.0000
    19 H5         -13.4399   -36.4764    -5.8241 H            1 DC2322   0.0000
    20 H6          -9.6250   -33.3982    -6.0956 H            1 DC2322   0.0000
    21 H7         -10.6729   -32.1825    -5.7945 H            1 DC2322   0.0000
    22 H8          -7.5987   -32.3028    -8.9460 H            1 DC2322   0.0000
    23 H9          -5.5916   -33.0685    -8.0321 H            1 DC2322   0.0000
    24 H10         -6.0422   -32.5880    -6.5379 H            1 DC2322   0.0000
@<TRIPOS>BOND
     1    1    3      ar
     2    2   12       1
     3    3    5       1
     4    3   14      ar
     5    4   13       1
     6    5    6       1
     7    5   10       1
     8    6    7      am
     9    7    8       2
    10    7    9       1
    11   10   11       1
    12   11   12       1
    13   12   13       1
    14   13   24       1
    15    5   15       1
    16    6   16       1
    17    9   17       1
    18    9   18       1
    19    9   19       1
    20   10   20       1
    21   10   21       1
    22   12   22       1
    23   13   23       1
@<TRIPOS>SUBSTRUCTURE
     1 DC2322      1 GROUP             4 A     DC2     0 **** DC2 A 322
