@<TRIPOS>MOLECULE
3iwk_NAD_6_ligand
   70    74     1     0     0
SMALL
NO_CHARGES


@<TRIPOS>ATOM
     1 PA          17.3170    15.7090    10.8270 P.3          1 NAD505   0.0000
     2 O1A         18.2700    16.7780    10.4290 O.co2        1 NAD505   0.0000
     3 O2A         17.7630    14.2980    10.8930 O.co2        1 NAD505  -1.0000
     4 O5B         16.0340    15.7390     9.8350 O.3          1 NAD505   0.0000
     5 C5B         15.2990    16.9430     9.5860 C.3          1 NAD505   0.0000
     6 C4B         13.8170    16.7570     9.9270 C.3          1 NAD505   0.0000
     7 O4B         13.4690    15.3420     9.8570 O.3          1 NAD505   0.0000
     8 C3B         13.6300    17.2150    11.3800 C.3          1 NAD505   0.0000
     9 O3B         12.5690    18.1890    11.4510 O.3          1 NAD505   0.0000
    10 C2B         13.2920    15.9220    12.1330 C.3          1 NAD505   0.0000
    11 O2B         12.3270    16.1630    13.1560 O.3          1 NAD505   0.0000
    12 C1B         12.7050    15.0180    11.0400 C.3          1 NAD505   0.0000
    13 N9A         12.8630    13.5530    11.3630 N.pl3        1 NAD505   0.0000
    14 C8A         14.1710    12.9060    11.5270 C.2          1 NAD505   0.0000
    15 N7A         13.8190    11.5200    11.8330 N.2          1 NAD505   0.0000
    16 C5A         12.4920    11.4070    11.8350 C.ar         1 NAD505   0.0000
    17 C6A         11.6840    10.2950    12.0700 C.ar         1 NAD505   0.0000
    18 N6A         12.2470     9.1210    12.3390 N.pl3        1 NAD505   0.0000
    19 N1A         10.2840    10.3860    12.0350 N.ar         1 NAD505   0.0000
    20 C2A          9.5710    11.6530    11.7420 C.ar         1 NAD505   0.0000
    21 N3A         10.5090    12.7790    11.5000 N.ar         1 NAD505   0.0000
    22 C4A         11.9060    12.6460    11.5500 C.ar         1 NAD505   0.0000
    23 O3          16.6870    16.1300    12.2430 O.3          1 NAD505   0.0000
    24 PN          17.5450    15.8970    13.5850 P.3          1 NAD505   0.0000
    25 O1N         17.5500    14.4720    14.0240 O.co2        1 NAD505   0.0000
    26 O2N         16.9110    16.8740    14.7130 O.co2        1 NAD505  -1.0000
    27 O5D         19.0430    16.5030    13.2960 O.3          1 NAD505   0.0000
    28 C5D         20.2240    15.9400    13.8970 C.3          1 NAD505   0.0000
    29 C4D         20.1650    16.0590    15.4270 C.3          1 NAD505   0.0000
    30 O4D         20.5150    14.8050    16.0480 O.3          1 NAD505   0.0000
    31 C3D         21.1860    17.0670    15.9790 C.3          1 NAD505   0.0000
    32 O3D         20.4810    18.2150    16.4600 O.3          1 NAD505   0.0000
    33 C2D         21.8550    16.3180    17.1380 C.3          1 NAD505   0.0000
    34 O2D         21.9710    17.1470    18.2950 O.3          1 NAD505   0.0000
    35 C1D         20.8380    15.2120    17.3980 C.3          1 NAD505   0.0000
    36 N1N         21.3530    14.0920    18.2290 N.ar         1 NAD505   1.0000
    37 C2N         21.0150    14.0300    19.5910 C.ar         1 NAD505   0.0000
    38 C3N         21.4910    12.9770    20.3700 C.ar         1 NAD505   0.0000
    39 C7N         21.1340    12.8900    21.8520 C.2          1 NAD505   0.0000
    40 O7N         21.3612    13.8284    22.6157 O.2          1 NAD505   0.0000
    41 N7N         20.5774    11.7425    22.2239 N.am         1 NAD505   0.0000
    42 C4N         22.2940    11.9910    19.7990 C.ar         1 NAD505   0.0000
    43 C5N         22.6330    12.0470    18.4470 C.ar         1 NAD505   0.0000
    44 C6N         22.1610    13.0910    17.6590 C.ar         1 NAD505   0.0000
    45 H5B1        15.3850    17.1855     8.6197 H            1 NAD505   0.0000
    46 H5B2        15.6750    17.6789    10.1491 H            1 NAD505   0.0000
    47 H4B         13.2418    17.2939     9.3099 H            1 NAD505   0.0000
    48 H3B         14.4810    17.6059    11.7306 H            1 NAD505   0.0000
    49 H5          12.4507    18.4845    12.3990 H            1 NAD505   0.0000
    50 H2B         14.1192    15.5141    12.5195 H            1 NAD505   0.0000
    51 H7          12.7139    15.9153    14.0442 H            1 NAD505   0.0000
    52 H1B         11.7397    15.2358    10.8958 H            1 NAD505   0.0000
    53 H8A         15.0807    13.3138    11.4486 H            1 NAD505   0.0000
    54 H6A1        11.6743     8.3190    12.5086 H            1 NAD505   0.0000
    55 H6A2        13.2432     9.0400    12.3717 H            1 NAD505   0.0000
    56 H2A          8.5752    11.7392    11.7110 H            1 NAD505   0.0000
    57 H5D1        21.0285    16.4295    13.5606 H            1 NAD505   0.0000
    58 H5D2        20.2918    14.9746    13.6454 H            1 NAD505   0.0000
    59 H4D         19.2433    16.3269    15.7076 H            1 NAD505   0.0000
    60 H3D         21.8549    17.3214    15.2806 H            1 NAD505   0.0000
    61 H17         20.6672    18.3362    17.4350 H            1 NAD505   0.0000
    62 H2D         22.7415    15.9428    16.8671 H            1 NAD505   0.0000
    63 H19         22.9355    17.2423    18.5414 H            1 NAD505   0.0000
    64 H1D         20.0256    15.6020    17.8315 H            1 NAD505   0.0000
    65 H2N         20.4368    14.7366    19.9989 H            1 NAD505   0.0000
    66 H7N1        20.3168    11.5995    23.1787 H            1 NAD505   0.0000
    67 H7N2        20.4190    11.0217    21.5491 H            1 NAD505   0.0000
    68 H4N         22.6300    11.2370    20.3634 H            1 NAD505   0.0000
    69 H5N         23.2136    11.3386    18.0457 H            1 NAD505   0.0000
    70 H6N         22.3957    13.1303    16.6877 H            1 NAD505   0.0000
@<TRIPOS>BOND
     1    1    2      ar
     2    1    3      ar
     3    1    4       1
     4    1   23       1
     5    4    5       1
     6    5    6       1
     7    6    7       1
     8    6    8       1
     9    7   12       1
    10    8    9       1
    11    8   10       1
    12   10   11       1
    13   10   12       1
    14   12   13       1
    15   13   14       1
    16   13   22       1
    17   14   15       2
    18   15   16       1
    19   16   17      ar
    20   16   22      ar
    21   17   18       1
    22   17   19      ar
    23   19   20      ar
    24   20   21      ar
    25   21   22      ar
    26   23   24       1
    27   24   25      ar
    28   24   26      ar
    29   24   27       1
    30   27   28       1
    31   28   29       1
    32   29   30       1
    33   29   31       1
    34   30   35       1
    35   31   32       1
    36   31   33       1
    37   33   34       1
    38   33   35       1
    39   35   36       1
    40   36   37      ar
    41   36   44      ar
    42   37   38      ar
    43   38   39       1
    44   38   42      ar
    45   39   40       2
    46   39   41      am
    47   42   43      ar
    48   43   44      ar
    49   44   70       1
    50    5   45       1
    51    5   46       1
    52    6   47       1
    53    8   48       1
    54    9   49       1
    55   10   50       1
    56   11   51       1
    57   12   52       1
    58   14   53       1
    59   18   54       1
    60   18   55       1
    61   20   56       1
    62   43   69       1
    63   28   57       1
    64   28   58       1
    65   29   59       1
    66   31   60       1
    67   32   61       1
    68   33   62       1
    69   34   63       1
    70   35   64       1
    71   37   65       1
    72   41   66       1
    73   41   67       1
    74   42   68       1
@<TRIPOS>SUBSTRUCTURE
     1 NAD505      1 GROUP             4 F     NAD     0 **** NAD F 505
