@<TRIPOS>MOLECULE
3tut_ATP_1_ligand
   43    45     1     0     0
SMALL
NO_CHARGES


@<TRIPOS>ATOM
     1 PG          12.7410   -15.6270   -14.6880 P.3          1 ATP401   0.0000
     2 O1G         13.1210   -15.6090   -16.1580 O.co2        1 ATP401   0.0000
     3 O2G         11.3980   -16.2880   -14.4040 O.co2        1 ATP401  -1.0000
     4 O3G         13.8690   -16.0740   -13.7930 O.co2        1 ATP401  -1.0000
     5 PB          11.2420   -13.2500   -14.2440 P.3          1 ATP401   0.0000
     6 O1B         10.5400   -13.4080   -12.9120 O.co2        1 ATP401   0.0000
     7 O2B         10.5470   -13.4350   -15.5680 O.co2        1 ATP401  -1.0000
     8 O3B         12.6120   -14.0960   -14.2270 O.3          1 ATP401   0.0000
     9 PA          12.2920   -10.8220   -15.3580 P.3          1 ATP401   0.0000
    10 O1A         11.0720    -9.9690   -15.6210 O.co2        1 ATP401   0.0000
    11 O2A         12.9060   -11.6500   -16.4960 O.co2        1 ATP401  -1.0000
    12 O3A         11.9700   -11.8410   -14.1330 O.3          1 ATP401   0.0000
    13 O5'         13.3580    -9.8660   -14.6250 O.3          1 ATP401   0.0000
    14 C5'         14.2340   -10.4010   -13.6450 C.3          1 ATP401   0.0000
    15 C4'         15.2070    -9.3080   -13.2200 C.3          1 ATP401   0.0000
    16 O4'         16.0220    -8.8760   -14.3280 O.3          1 ATP401   0.0000
    17 C3'         14.4920    -8.0550   -12.6900 C.3          1 ATP401   0.0000
    18 O3'         15.2470    -7.6250   -11.5500 O.3          1 ATP401   0.0000
    19 C2'         14.6500    -7.0600   -13.8340 C.3          1 ATP401   0.0000
    20 O2'         14.5980    -5.6860   -13.3950 O.3          1 ATP401   0.0000
    21 C1'         16.0050    -7.4610   -14.4140 C.3          1 ATP401   0.0000
    22 N9          16.0180    -7.0450   -15.8180 N.pl3        1 ATP401   0.0000
    23 C8          15.2550    -7.5550   -16.8150 C.2          1 ATP401   0.0000
    24 N7          15.5110    -6.8980   -17.9670 N.2          1 ATP401   0.0000
    25 C5          16.4350    -5.9420   -17.7040 C.ar         1 ATP401   0.0000
    26 C6          17.1210    -4.8830   -18.4720 C.ar         1 ATP401   0.0000
    27 N6          16.8680    -4.7230   -19.7990 N.pl3        1 ATP401   0.0000
    28 N1          18.0030    -4.1020   -17.8020 N.ar         1 ATP401   0.0000
    29 C2          18.2460    -4.2580   -16.4780 C.ar         1 ATP401   0.0000
    30 N3          17.6710    -5.2080   -15.7280 N.ar         1 ATP401   0.0000
    31 C4          16.7560    -6.0400   -16.2770 C.ar         1 ATP401   0.0000
    32 H5'1        14.7403   -11.1726   -14.0300 H            1 ATP401   0.0000
    33 H5'2        13.7067   -10.7100   -12.8535 H            1 ATP401   0.0000
    34 H4'         15.8029    -9.6676   -12.5019 H            1 ATP401   0.0000
    35 H3'         13.5329    -8.2297   -12.4674 H            1 ATP401   0.0000
    36 H5          14.6381    -7.1730   -10.8981 H            1 ATP401   0.0000
    37 H2'         13.9356    -7.2194   -14.5153 H            1 ATP401   0.0000
    38 H7          13.7165    -5.5091   -12.9572 H            1 ATP401   0.0000
    39 H1'         16.7603    -7.0520   -13.9019 H            1 ATP401   0.0000
    40 H9          14.6011    -8.3047   -16.7132 H            1 ATP401   0.0000
    41 H10         17.3353    -4.0044   -20.3140 H            1 ATP401   0.0000
    42 H11         16.2147    -5.3240   -20.2595 H            1 ATP401   0.0000
    43 H12         18.8884    -3.6310   -16.0374 H            1 ATP401   0.0000
@<TRIPOS>BOND
     1    1    2      ar
     2    1    3      ar
     3    1    4      ar
     4    1    8       1
     5    5    6      ar
     6    5    7      ar
     7    5    8       1
     8    5   12       1
     9    9   10      ar
    10    9   11      ar
    11    9   12       1
    12    9   13       1
    13   13   14       1
    14   14   15       1
    15   15   16       1
    16   15   17       1
    17   16   21       1
    18   17   18       1
    19   17   19       1
    20   19   20       1
    21   19   21       1
    22   21   22       1
    23   22   23       1
    24   22   31       1
    25   23   24       2
    26   24   25       1
    27   25   26      ar
    28   25   31      ar
    29   26   27       1
    30   26   28      ar
    31   28   29      ar
    32   29   30      ar
    33   30   31      ar
    34   29   43       1
    35   27   42       1
    36   27   41       1
    37   23   40       1
    38   14   32       1
    39   14   33       1
    40   15   34       1
    41   17   35       1
    42   18   36       1
    43   19   37       1
    44   20   38       1
    45   21   39       1
@<TRIPOS>SUBSTRUCTURE
     1 ATP401      1 GROUP             4 A     ATP     0 **** ATP A 401
