@<TRIPOS>MOLECULE
3bjw_SVR_1_ligand
  120   127     1     0     0
SMALL
NO_CHARGES


@<TRIPOS>ATOM
     1 O35         41.4430   -41.5890    10.2860 O.co2        1 SVR508   0.0000
     2 S31         41.5100   -41.4270     8.7840 S.o2         1 SVR508   0.0000
     3 O36         41.8710   -40.0040     8.4540 O.co2        1 SVR508   0.0000
     4 O34         42.5560   -42.3500     8.2300 O.co2        1 SVR508  -1.0000
     5 C22         39.9570   -41.8490     8.0780 C.ar         1 SVR508   0.0000
     6 C18         39.5110   -41.1950     6.9150 C.ar         1 SVR508   0.0000
     7 C11         38.2650   -41.5070     6.2970 C.ar         1 SVR508   0.0000
     8 S17         37.8950   -40.5600     4.8430 S.o2         1 SVR508   0.0000
     9 O23         37.6720   -41.4700     3.6610 O.co2        1 SVR508   0.0000
    10 O24         36.6930   -39.7070     5.0980 O.co2        1 SVR508   0.0000
    11 O25         39.0360   -39.6210     4.5740 O.co2        1 SVR508  -1.0000
    12 C16         39.1640   -42.8470     8.6740 C.ar         1 SVR508   0.0000
    13 C10         37.9090   -43.2230     8.1250 C.ar         1 SVR508   0.0000
    14 C15         37.1300   -44.2550     8.7740 C.ar         1 SVR508   0.0000
    15 S21         37.6770   -45.0740    10.2340 S.o2         1 SVR508   0.0000
    16 O28         38.9490   -45.8070     9.9400 O.co2        1 SVR508   0.0000
    17 O29         37.9000   -44.0700    11.3210 O.co2        1 SVR508   0.0000
    18 O30         36.6530   -46.0820    10.6750 O.co2        1 SVR508  -1.0000
    19 C12         35.8980   -44.6400     8.2470 C.ar         1 SVR508   0.0000
    20 C7          35.3950   -44.0530     7.0990 C.ar         1 SVR508   0.0000
    21 C6          37.4060   -42.5640     6.9000 C.ar         1 SVR508   0.0000
    22 C3          36.0900   -43.0310     6.3970 C.ar         1 SVR508   0.0000
    23 N1          35.4050   -42.6110     5.3140 N.am         1 SVR508   0.0000
    24 C2          34.6050   -41.5500     5.4290 C.2          1 SVR508   0.0000
    25 O4          34.5080   -40.9180     6.4870 O.2          1 SVR508   0.0000
    26 C5          33.7500   -41.1500     4.1950 C.ar         1 SVR508   0.0000
    27 C8          32.8980   -40.0320     4.3130 C.ar         1 SVR508   0.0000
    28 C9          33.7780   -41.8850     2.9790 C.ar         1 SVR508   0.0000
    29 C14         32.9450   -41.4830     1.8880 C.ar         1 SVR508   0.0000
    30 C20         32.0860   -40.3500     2.0150 C.ar         1 SVR508   0.0000
    31 C27         31.1980   -39.9410     0.8330 C.3          1 SVR508   0.0000
    32 C13         32.0650   -39.6140     3.2470 C.ar         1 SVR508   0.0000
    33 N19         31.2670   -38.5300     3.4420 N.am         1 SVR508   0.0000
    34 C26         30.2140   -38.6730     4.2830 C.2          1 SVR508   0.0000
    35 O32         29.9690   -39.8650     4.8980 O.2          1 SVR508   0.0000
    36 C33         29.2720   -37.4970     4.5650 C.ar         1 SVR508   0.0000
    37 C37         29.3930   -36.1730     4.0010 C.ar         1 SVR508   0.0000
    38 C38         28.2150   -37.7920     5.4580 C.ar         1 SVR508   0.0000
    39 C40         27.2740   -36.8270     5.8080 C.ar         1 SVR508   0.0000
    40 C42         27.3700   -35.5400     5.2780 C.ar         1 SVR508   0.0000
    41 C39         28.4080   -35.1840     4.3810 C.ar         1 SVR508   0.0000
    42 N41         28.3650   -33.8950     3.9790 N.2          1 SVR508   0.0000
    43 C43         28.5810   -33.2790     2.8030 C.2          1 SVR508   0.0000
    44 O45         28.9430   -33.9250     1.6680 O.3          1 SVR508   0.0000
    45 N44         28.3890   -31.9470     2.8850 N.pl3        1 SVR508   0.0000
    46 C46         28.4800   -30.9560     1.9780 C.ar         1 SVR508   0.0000
    47 C47         29.4250   -30.9170     0.9290 C.ar         1 SVR508   0.0000
    48 C48         27.5640   -29.8780     2.1280 C.ar         1 SVR508   0.0000
    49 C50         27.5750   -28.7750     1.2480 C.ar         1 SVR508   0.0000
    50 C52         28.5100   -28.7340     0.2030 C.ar         1 SVR508   0.0000
    51 C49         29.4380   -29.7980     0.0370 C.ar         1 SVR508   0.0000
    52 C51         30.4590   -29.7380    -1.1010 C.2          1 SVR508   0.0000
    53 O54         31.1750   -30.7170    -1.3490 O.2          1 SVR508   0.0000
    54 N53         30.4850   -28.5670    -1.7660 N.am         1 SVR508   0.0000
    55 C55         31.2850   -28.2830    -2.8140 C.ar         1 SVR508   0.0000
    56 C56         31.5790   -29.2800    -3.7960 C.ar         1 SVR508   0.0000
    57 C57         31.8280   -26.9740    -2.9560 C.ar         1 SVR508   0.0000
    58 C59         31.5250   -25.8850    -1.9200 C.3          1 SVR508   0.0000
    59 C60         32.6470   -26.6690    -4.0660 C.ar         1 SVR508   0.0000
    60 C62         32.9290   -27.6630    -5.0260 C.ar         1 SVR508   0.0000
    61 C58         32.3950   -28.9770    -4.8900 C.ar         1 SVR508   0.0000
    62 C61         32.7430   -30.0280    -5.9550 C.2          1 SVR508   0.0000
    63 O64         33.1570   -31.1550    -5.6620 O.2          1 SVR508   0.0000
    64 N63         32.5880   -29.5450    -7.1870 N.am         1 SVR508   0.0000
    65 C65         32.8580   -30.1410    -8.3590 C.ar         1 SVR508   0.0000
    66 C67         34.1700   -30.6550    -8.5350 C.ar         1 SVR508   0.0000
    67 C70         34.5680   -31.2540    -9.7270 C.ar         1 SVR508   0.0000
    68 C71         33.6870   -31.3510   -10.8040 C.ar         1 SVR508   0.0000
    69 S75         34.2810   -32.1140   -12.2620 S.o2         1 SVR508   0.0000
    70 O80         33.4070   -33.2900   -12.5880 O.co2        1 SVR508   0.0000
    71 O81         34.2800   -31.1220   -13.3910 O.co2        1 SVR508   0.0000
    72 O82         35.6880   -32.5980   -12.0370 O.co2        1 SVR508  -1.0000
    73 C66         31.8980   -30.2330    -9.4480 C.ar         1 SVR508   0.0000
    74 C68         32.3430   -30.8400   -10.6940 C.ar         1 SVR508   0.0000
    75 C72         31.4470   -30.9190   -11.7950 C.ar         1 SVR508   0.0000
    76 C69         30.5250   -29.7520    -9.3680 C.ar         1 SVR508   0.0000
    77 S73         29.8060   -29.0510    -7.9200 S.o2         1 SVR508   0.0000
    78 O77         29.8230   -30.0970    -6.8540 O.co2        1 SVR508   0.0000
    79 O78         30.5600   -27.8280    -7.4720 O.co2        1 SVR508   0.0000
    80 O79         28.3710   -28.6730    -8.1900 O.co2        1 SVR508  -1.0000
    81 C74         29.6860   -29.8570   -10.4960 C.ar         1 SVR508   0.0000
    82 C76         30.1320   -30.4180   -11.6930 C.ar         1 SVR508   0.0000
    83 S83         29.0370   -30.4740   -13.0620 S.o2         1 SVR508   0.0000
    84 O85         29.6830   -31.2310   -14.1950 O.co2        1 SVR508   0.0000
    85 O86         27.7460   -31.1380   -12.6610 O.co2        1 SVR508   0.0000
    86 O84         28.7450   -29.0740   -13.5170 O.co2        1 SVR508  -1.0000
    87 H1          40.0879   -40.4869     6.5079 H            1 SVR508   0.0000
    88 H2          39.4912   -43.3016     9.5024 H            1 SVR508   0.0000
    89 H3          35.3684   -45.3529     8.7066 H            1 SVR508   0.0000
    90 H4          34.5093   -44.3594     6.7503 H            1 SVR508   0.0000
    91 H5          35.4953   -43.0871     4.4393 H            1 SVR508   0.0000
    92 H6          32.8819   -39.5210     5.1724 H            1 SVR508   0.0000
    93 H7          34.3776   -42.6799     2.8865 H            1 SVR508   0.0000
    94 H8          32.9645   -41.9986     1.0314 H            1 SVR508   0.0000
    95 H9          30.6616   -39.1347     1.0824 H            1 SVR508   0.0000
    96 H10         31.7724   -39.7278     0.0427 H            1 SVR508   0.0000
    97 H11         30.5811   -40.6938     0.6034 H            1 SVR508   0.0000
    98 H12         31.4502   -37.6609     2.9825 H            1 SVR508   0.0000
    99 H13         30.1337   -35.9472     3.3683 H            1 SVR508   0.0000
   100 H14         28.1423   -38.7111     5.8453 H            1 SVR508   0.0000
   101 H15         26.5315   -37.0559     6.4375 H            1 SVR508   0.0000
   102 H16         26.6910   -34.8531     5.5369 H            1 SVR508   0.0000
   103 H17         28.1279   -31.6338     3.7981 H            1 SVR508   0.0000
   104 H18         30.0789   -31.6643     0.8107 H            1 SVR508   0.0000
   105 H19         26.8978   -29.9024     2.8733 H            1 SVR508   0.0000
   106 H20         26.9211   -28.0281     1.3684 H            1 SVR508   0.0000
   107 H21         28.5237   -27.9561    -0.4253 H            1 SVR508   0.0000
   108 H22         29.8602   -27.8497    -1.4575 H            1 SVR508   0.0000
   109 H23         31.1985   -30.1998    -3.6996 H            1 SVR508   0.0000
   110 H24         31.9875   -25.0379    -2.1818 H            1 SVR508   0.0000
   111 H25         30.5382   -25.7276    -1.8807 H            1 SVR508   0.0000
   112 H26         31.8516   -26.1793    -1.0218 H            1 SVR508   0.0000
   113 H27         33.0262   -25.7497    -4.1709 H            1 SVR508   0.0000
   114 H28         33.5096   -27.4434    -5.8100 H            1 SVR508   0.0000
   115 H29         32.2224   -28.6161    -7.2464 H            1 SVR508   0.0000
   116 H30         34.8253   -30.5848    -7.7829 H            1 SVR508   0.0000
   117 H31         35.4953   -31.6186    -9.8120 H            1 SVR508   0.0000
   118 H32         31.7524   -31.3345   -12.6518 H            1 SVR508   0.0000
   119 H33         28.7462   -29.5204   -10.4366 H            1 SVR508   0.0000
   120 H34         29.0889   -33.4091     0.8239 H            1 SVR508   0.0000
@<TRIPOS>BOND
     1    1    2      ar
     2    2    3      ar
     3    2    4      ar
     4    2    5       1
     5    5    6      ar
     6    5   12      ar
     7    6    7      ar
     8    7    8       1
     9    7   21      ar
    10    8    9      ar
    11    8   10      ar
    12    8   11      ar
    13   12   13      ar
    14   13   14      ar
    15   13   21      ar
    16   14   15       1
    17   14   19      ar
    18   15   16      ar
    19   15   17      ar
    20   15   18      ar
    21   19   20      ar
    22   20   22      ar
    23   21   22      ar
    24   22   23       1
    25   23   24      am
    26   24   25       2
    27   24   26       1
    28   26   27      ar
    29   26   28      ar
    30   27   32      ar
    31   28   29      ar
    32   29   30      ar
    33   30   31       1
    34   30   32      ar
    35   32   33       1
    36   33   34      am
    37   34   35       2
    38   34   36       1
    39   36   37      ar
    40   36   38      ar
    41   37   41      ar
    42   38   39      ar
    43   39   40      ar
    44   40   41      ar
    45   41   42       1
    46   42   43       2
    47   43   44       1
    48   43   45       1
    49   45   46       1
    50   46   47      ar
    51   46   48      ar
    52   47   51      ar
    53   48   49      ar
    54   49   50      ar
    55   50   51      ar
    56   51   52       1
    57   52   53       2
    58   52   54      am
    59   54   55       1
    60   55   56      ar
    61   55   57      ar
    62   56   61      ar
    63   57   58       1
    64   57   59      ar
    65   59   60      ar
    66   60   61      ar
    67   61   62       1
    68   62   63       2
    69   62   64      am
    70   64   65       1
    71   65   66      ar
    72   65   73      ar
    73   66   67      ar
    74   67   68      ar
    75   68   69       1
    76   68   74      ar
    77   69   70      ar
    78   69   71      ar
    79   69   72      ar
    80   73   74      ar
    81   73   76      ar
    82   74   75      ar
    83   75   82      ar
    84   76   77       1
    85   76   81      ar
    86   77   78      ar
    87   77   79      ar
    88   77   80      ar
    89   81   82      ar
    90   82   83       1
    91   83   84      ar
    92   83   85      ar
    93   83   86      ar
    94   67  117       1
    95    6   87       1
    96   81  119       1
    97   12   88       1
    98   75  118       1
    99   19   89       1
   100   20   90       1
   101   23   91       1
   102   27   92       1
   103   28   93       1
   104   29   94       1
   105   31   95       1
   106   31   96       1
   107   31   97       1
   108   33   98       1
   109   37   99       1
   110   38  100       1
   111   39  101       1
   112   40  102       1
   113   66  116       1
   114   45  103       1
   115   47  104       1
   116   48  105       1
   117   49  106       1
   118   50  107       1
   119   54  108       1
   120   56  109       1
   121   58  110       1
   122   58  111       1
   123   58  112       1
   124   59  113       1
   125   60  114       1
   126   64  115       1
   127   44  120       1
@<TRIPOS>SUBSTRUCTURE
     1 SVR508      1 GROUP             4 A     SVR     0 **** SVR A 508
