@<TRIPOS>MOLECULE
5dq8_FLF_2_ligand
   29    30     1     0     0
SMALL
NO_CHARGES


@<TRIPOS>ATOM
     1 C1          41.6240    27.0990   -18.6360 C.ar         1 FLF501   0.0000
     2 O1          39.3670    27.9570   -19.0410 O.co2        1 FLF501   0.0000
     3 C2          41.9450    28.3150   -19.2250 C.ar         1 FLF501   0.0000
     4 C3          43.2760    28.6600   -19.4090 C.ar         1 FLF501   0.0000
     5 O2          39.5780    26.0500   -18.0790 O.co2        1 FLF501  -1.0000
     6 C4          44.2890    27.7940   -19.0300 C.ar         1 FLF501   0.0000
     7 C5          43.9570    26.5650   -18.4550 C.ar         1 FLF501   0.0000
     8 C6          42.6190    26.2230   -18.2620 C.ar         1 FLF501   0.0000
     9 C7          40.1130    27.0490   -18.5880 C.2          1 FLF501   0.0000
    10 N           42.2270    25.0040   -17.6740 N.pl3        1 FLF501   0.0000
    11 C1'         43.0500    23.8600   -17.6560 C.ar         1 FLF501   0.0000
    12 C2'         42.6690    22.7640   -18.3980 C.ar         1 FLF501   0.0000
    13 C3'         43.4620    21.6410   -18.3860 C.ar         1 FLF501   0.0000
    14 C4'         44.6280    21.5750   -17.6410 C.ar         1 FLF501   0.0000
    15 C5'         44.9980    22.6750   -16.8910 C.ar         1 FLF501   0.0000
    16 C6'         44.2060    23.8210   -16.8990 C.ar         1 FLF501   0.0000
    17 C7'         43.0510    20.4770   -19.2000 C.3          1 FLF501   0.0000
    18 F1          41.8740    20.1050   -18.7640 F            1 FLF501   0.0000
    19 F2          42.8210    20.8160   -20.4650 F            1 FLF501   0.0000
    20 F3          44.0060    19.5530   -19.0540 F            1 FLF501   0.0000
    21 H1          41.2197    28.9393   -19.5153 H            1 FLF501   0.0000
    22 H2          43.5066    29.5424   -19.8192 H            1 FLF501   0.0000
    23 H3          45.2471    28.0460   -19.1666 H            1 FLF501   0.0000
    24 H4          44.6794    25.9299   -18.1816 H            1 FLF501   0.0000
    25 H5          41.3231    24.9480   -17.2499 H            1 FLF501   0.0000
    26 H2'         41.8275    22.7848   -18.9378 H            1 FLF501   0.0000
    27 H4'         45.1905    20.7482   -17.6459 H            1 FLF501   0.0000
    28 H5'         45.8339    22.6484   -16.3428 H            1 FLF501   0.0000
    29 H6'         44.4742    24.6169   -16.3562 H            1 FLF501   0.0000
@<TRIPOS>BOND
     1    1    3      ar
     2    1    8      ar
     3    1    9       1
     4    2    9      ar
     5    3    4      ar
     6    4    6      ar
     7    5    9      ar
     8    6    7      ar
     9    7    8      ar
    10    8   10       1
    11   10   11       1
    12   11   12      ar
    13   11   16      ar
    14   12   13      ar
    15   13   14      ar
    16   13   17       1
    17   14   15      ar
    18   15   16      ar
    19   17   18       1
    20   17   19       1
    21   17   20       1
    22   16   29       1
    23    3   21       1
    24    4   22       1
    25    6   23       1
    26    7   24       1
    27   10   25       1
    28   12   26       1
    29   14   27       1
    30   15   28       1
@<TRIPOS>SUBSTRUCTURE
     1 FLF501      1 GROUP             4 B     FLF     0 **** FLF B 501
