@<TRIPOS>MOLECULE
2nvk_FAD_1_ligand
   84    89     1     0     0
SMALL
NO_CHARGES


@<TRIPOS>ATOM
     1 PA         110.3860    25.8800    65.3140 P.3          1 FAD489   0.0000
     2 O1A        111.2980    24.7400    64.8910 O.co2        1 FAD489   0.0000
     3 O2A        110.8500    27.2240    64.8010 O.co2        1 FAD489  -1.0000
     4 O5B        110.3580    25.9490    66.9170 O.3          1 FAD489   0.0000
     5 C5B        110.0960    24.8060    67.7000 C.3          1 FAD489   0.0000
     6 C4B        110.9980    24.8280    68.9320 C.3          1 FAD489   0.0000
     7 O4B        110.4650    24.0130    69.9610 O.3          1 FAD489   0.0000
     8 C3B        112.3840    24.2860    68.6320 C.3          1 FAD489   0.0000
     9 O3B        113.3250    25.1020    69.2950 O.3          1 FAD489   0.0000
    10 C2B        112.3170    22.8670    69.1940 C.3          1 FAD489   0.0000
    11 O2B        113.5540    22.2700    69.5130 O.3          1 FAD489   0.0000
    12 C1B        111.4560    23.1090    70.4180 C.3          1 FAD489   0.0000
    13 N9A        110.8250    21.8960    70.9720 N.pl3        1 FAD489   0.0000
    14 C8A        110.4590    20.7470    70.3210 C.2          1 FAD489   0.0000
    15 N7A        109.9130    19.9050    71.2180 N.2          1 FAD489   0.0000
    16 C5A        109.9160    20.4950    72.4280 C.ar         1 FAD489   0.0000
    17 C6A        109.4780    20.0800    73.6810 C.ar         1 FAD489   0.0000
    18 N6A        108.9830    18.8470    73.8700 N.pl3        1 FAD489   0.0000
    19 N1A        109.6360    20.9490    74.7480 N.ar         1 FAD489   0.0000
    20 C2A        110.2170    22.1920    74.5970 C.ar         1 FAD489   0.0000
    21 N3A        110.6490    22.5870    73.3450 N.ar         1 FAD489   0.0000
    22 C4A        110.4930    21.7520    72.2880 C.ar         1 FAD489   0.0000
    23 N1         110.6890    29.6710    56.3080 N.2          1 FAD489   0.0000
    24 C2         110.4250    30.8400    55.6190 C.2          1 FAD489   0.0000
    25 O2         109.3450    31.4120    55.7550 O.2          1 FAD489   0.0000
    26 N3         111.3780    31.3590    54.7660 N.pl3        1 FAD489   0.0000
    27 C4         112.5940    30.7250    54.5940 C.2          1 FAD489   0.0000
    28 O4         113.5060    31.3580    54.0820 O.2          1 FAD489   0.0000
    29 C4X        112.8740    29.5610    55.3010 C.2          1 FAD489   0.0000
    30 N5         114.0980    28.9170    55.1560 N.2          1 FAD489   0.0000
    31 C5X        114.3610    27.7520    55.8600 C.ar         1 FAD489   0.0000
    32 C6         115.5900    27.1160    55.6980 C.ar         1 FAD489   0.0000
    33 C7         115.8790    25.9510    56.4030 C.ar         1 FAD489   0.0000
    34 C7M        117.3140    25.5030    56.4600 C.3          1 FAD489   0.0000
    35 C8         114.9150    25.4160    57.2760 C.ar         1 FAD489   0.0000
    36 C8M        115.2600    24.3300    58.2560 C.3          1 FAD489   0.0000
    37 C9         113.6750    26.0510    57.4250 C.ar         1 FAD489   0.0000
    38 C9A        113.3920    27.2240    56.7190 C.ar         1 FAD489   0.0000
    39 N10        112.1600    27.8700    56.8690 N.pl3        1 FAD489   0.0000
    40 C10        111.9050    29.0340    56.1640 C.2          1 FAD489   0.0000
    41 C1'        111.0170    27.2020    57.5940 C.3          1 FAD489   0.0000
    42 C2'        110.9150    27.7970    59.0010 C.3          1 FAD489   0.0000
    43 O2'        112.1730    27.7100    59.6620 O.3          1 FAD489   0.0000
    44 C3'        109.8270    27.0810    59.7930 C.3          1 FAD489   0.0000
    45 O3'        108.6400    27.0940    59.0320 O.3          1 FAD489   0.0000
    46 C4'        109.5450    27.7290    61.1450 C.3          1 FAD489   0.0000
    47 O4'        110.7640    27.9260    61.8310 O.3          1 FAD489   0.0000
    48 C5'        108.5900    26.8480    61.9570 C.3          1 FAD489   0.0000
    49 O5'        108.2760    27.4400    63.2030 O.3          1 FAD489   0.0000
    50 P          107.7000    26.6000    64.4570 P.3          1 FAD489   0.0000
    51 O1P        107.4220    27.5730    65.5830 O.co2        1 FAD489   0.0000
    52 O2P        106.4630    25.8450    64.0860 O.co2        1 FAD489  -1.0000
    53 O3P        108.8620    25.5430    64.8620 O.3          1 FAD489   0.0000
    54 H5B1       110.2816    23.9827    67.1636 H            1 FAD489   0.0000
    55 H5B2       109.1378    24.8084    67.9862 H            1 FAD489   0.0000
    56 H4B        111.0773    25.7677    69.2647 H            1 FAD489   0.0000
    57 H3B        112.5558    24.2717    67.6470 H            1 FAD489   0.0000
    58 H5         112.9141    25.4770    70.1260 H            1 FAD489   0.0000
    59 H2B        111.8224    22.2804    68.5526 H            1 FAD489   0.0000
    60 H7         113.7894    22.4777    70.4624 H            1 FAD489   0.0000
    61 H1B        112.0053    23.5504    71.1276 H            1 FAD489   0.0000
    62 H8A        110.5775    20.5650    69.3449 H            1 FAD489   0.0000
    63 H6A1       108.6729    18.5665    74.7784 H            1 FAD489   0.0000
    64 H6A2       108.9242    18.2087    73.1024 H            1 FAD489   0.0000
    65 H2A        110.3241    22.7994    75.3841 H            1 FAD489   0.0000
    66 H13        111.1863    32.2038    54.2665 H            1 FAD489   0.0000
    67 H14        116.2688    27.4988    55.0713 H            1 FAD489   0.0000
    68 H7M1       117.3790    24.6598    56.9936 H            1 FAD489   0.0000
    69 H7M2       117.6485    25.3371    55.5323 H            1 FAD489   0.0000
    70 H7M3       117.8684    26.2144    56.8920 H            1 FAD489   0.0000
    71 H8M1       114.4461    24.0858    58.7831 H            1 FAD489   0.0000
    72 H8M2       115.5898    23.5264    57.7606 H            1 FAD489   0.0000
    73 H8M3       115.9737    24.6552    58.8763 H            1 FAD489   0.0000
    74 H21        112.9885    25.6629    58.0399 H            1 FAD489   0.0000
    75 H1'1       111.1865    26.2184    57.6559 H            1 FAD489   0.0000
    76 H1'2       110.1638    27.3627    57.0978 H            1 FAD489   0.0000
    77 H2'        110.6654    28.7619    58.9200 H            1 FAD489   0.0000
    78 H25        112.0265    27.6227    60.6473 H            1 FAD489   0.0000
    79 H3'        110.1060    26.1322    59.9410 H            1 FAD489   0.0000
    80 H27        108.0977    26.2816    59.2463 H            1 FAD489   0.0000
    81 H4'        109.1131    28.6180    60.9929 H            1 FAD489   0.0000
    82 H29        110.7456    27.4224    62.6948 H            1 FAD489   0.0000
    83 H5'1       109.0229    25.9611    62.1180 H            1 FAD489   0.0000
    84 H5'2       107.7460    26.7174    61.4368 H            1 FAD489   0.0000
@<TRIPOS>BOND
     1    1    2      ar
     2    1    3      ar
     3    1    4       1
     4    1   53       1
     5    4    5       1
     6    5    6       1
     7    6    7       1
     8    6    8       1
     9    7   12       1
    10    8    9       1
    11    8   10       1
    12   10   11       1
    13   10   12       1
    14   12   13       1
    15   13   14       1
    16   13   22       1
    17   14   15       2
    18   15   16       1
    19   16   17      ar
    20   16   22      ar
    21   17   18       1
    22   17   19      ar
    23   19   20      ar
    24   20   21      ar
    25   21   22      ar
    26   23   24       1
    27   23   40       2
    28   24   25       2
    29   24   26       1
    30   26   27       1
    31   27   28       2
    32   27   29       1
    33   29   30       2
    34   29   40       1
    35   30   31       1
    36   31   32      ar
    37   31   38      ar
    38   32   33      ar
    39   33   34       1
    40   33   35      ar
    41   35   36       1
    42   35   37      ar
    43   37   38      ar
    44   38   39       1
    45   39   40       1
    46   39   41       1
    47   41   42       1
    48   42   43       1
    49   42   44       1
    50   44   45       1
    51   44   46       1
    52   46   47       1
    53   46   48       1
    54   48   49       1
    55   49   50       1
    56   50   51      ar
    57   50   52      ar
    58   50   53       1
    59   48   84       1
    60    5   54       1
    61    5   55       1
    62    6   56       1
    63    8   57       1
    64    9   58       1
    65   10   59       1
    66   11   60       1
    67   12   61       1
    68   14   62       1
    69   18   63       1
    70   18   64       1
    71   20   65       1
    72   26   66       1
    73   32   67       1
    74   34   68       1
    75   34   69       1
    76   34   70       1
    77   36   71       1
    78   36   72       1
    79   36   73       1
    80   37   74       1
    81   41   75       1
    82   41   76       1
    83   42   77       1
    84   43   78       1
    85   44   79       1
    86   45   80       1
    87   46   81       1
    88   47   82       1
    89   48   83       1
@<TRIPOS>SUBSTRUCTURE
     1 FAD489      1 GROUP             4 X     FAD     0 **** FAD X 489
