@<TRIPOS>MOLECULE
4wou_GDP_1_ligand
   40    42     1     0     0
SMALL
NO_CHARGES


@<TRIPOS>ATOM
     1 PB          35.0980    14.3430    33.2220 P.3          1 GDP701   0.0000
     2 O1B         34.6040    13.7320    31.9330 O.co2        1 GDP701   0.0000
     3 O2B         35.4590    15.7990    33.0350 O.co2        1 GDP701  -1.0000
     4 O3B         34.0020    14.2740    34.2690 O.co2        1 GDP701  -1.0000
     5 O3A         36.3510    13.5530    33.8470 O.3          1 GDP701   0.0000
     6 PA          37.4700    12.7480    33.0190 P.3          1 GDP701   0.0000
     7 O1A         37.9310    13.5600    31.8290 O.co2        1 GDP701   0.0000
     8 O2A         37.0910    11.3370    32.6360 O.co2        1 GDP701  -1.0000
     9 O5'         38.6020    12.6640    34.1550 O.3          1 GDP701   0.0000
    10 C5'         39.0570    13.8790    34.7570 C.3          1 GDP701   0.0000
    11 C4'         40.3450    13.5920    35.5080 C.3          1 GDP701   0.0000
    12 O4'         40.0670    12.5900    36.4960 O.3          1 GDP701   0.0000
    13 C3'         41.3880    13.0280    34.5610 C.3          1 GDP701   0.0000
    14 O3'         42.6530    13.6370    34.8510 O.3          1 GDP701   0.0000
    15 C2'         41.4350    11.5430    34.8820 C.3          1 GDP701   0.0000
    16 O2'         42.7690    11.0440    34.7520 O.3          1 GDP701   0.0000
    17 C1'         40.9400    11.4710    36.3230 C.3          1 GDP701   0.0000
    18 N9          40.2130    10.2040    36.5780 N.pl3        1 GDP701   0.0000
    19 C8          39.1360     9.7250    35.9260 C.2          1 GDP701   0.0000
    20 N7          38.7420     8.5230    36.4450 N.2          1 GDP701   0.0000
    21 C5          39.5850     8.2330    37.4560 C.2          1 GDP701   0.0000
    22 C6          39.7490     7.1410    38.4270 C.2          1 GDP701   0.0000
    23 O6          38.9610     6.1680    38.4040 O.2          1 GDP701   0.0000
    24 N1          40.7510     7.2170    39.3240 N.pl3        1 GDP701   0.0000
    25 C2          41.6020     8.2690    39.3550 C.2          1 GDP701   0.0000
    26 N2          42.6030     8.3090    40.2730 N.pl3        1 GDP701   0.0000
    27 N3          41.5130     9.2970    38.4850 N.2          1 GDP701   0.0000
    28 C4          40.5460     9.3360    37.5390 C.2          1 GDP701   0.0000
    29 H5'1        38.3647    14.2202    35.3928 H            1 GDP701   0.0000
    30 H5'2        39.2253    14.5641    34.0483 H            1 GDP701   0.0000
    31 H4'         40.6858    14.4248    35.9441 H            1 GDP701   0.0000
    32 H3'         41.1267    13.1807    33.6079 H            1 GDP701   0.0000
    33 H5          43.3116    12.9304    35.1099 H            1 GDP701   0.0000
    34 H2'         40.8170    11.0391    34.2785 H            1 GDP701   0.0000
    35 H7          42.9163    10.7266    33.8152 H            1 GDP701   0.0000
    36 H1'         41.7150    11.5475    36.9503 H            1 GDP701   0.0000
    37 H9          38.6843    10.1875    35.1631 H            1 GDP701   0.0000
    38 H10         40.8693     6.4760    39.9850 H            1 GDP701   0.0000
    39 H11         43.2309     9.0870    40.2945 H            1 GDP701   0.0000
    40 H12         42.7118     7.5604    40.9271 H            1 GDP701   0.0000
@<TRIPOS>BOND
     1    1    2      ar
     2    1    3      ar
     3    1    4      ar
     4    1    5       1
     5    5    6       1
     6    6    7      ar
     7    6    8      ar
     8    6    9       1
     9    9   10       1
    10   10   11       1
    11   11   12       1
    12   11   13       1
    13   12   17       1
    14   13   14       1
    15   13   15       1
    16   15   16       1
    17   15   17       1
    18   17   18       1
    19   18   19       1
    20   18   28       1
    21   19   20       2
    22   20   21       1
    23   21   22       1
    24   21   28       2
    25   22   23       2
    26   22   24       1
    27   24   25       1
    28   25   26       1
    29   25   27       2
    30   27   28       1
    31   26   40       1
    32   26   39       1
    33   24   38       1
    34   10   29       1
    35   10   30       1
    36   11   31       1
    37   13   32       1
    38   14   33       1
    39   15   34       1
    40   16   35       1
    41   17   36       1
    42   19   37       1
@<TRIPOS>SUBSTRUCTURE
     1 GDP701      1 GROUP             4 A     GDP     0 **** GDP A 701
