@<TRIPOS>MOLECULE
4wuj_FMN_1_ligand
   50    52     1     0     0
SMALL
NO_CHARGES


@<TRIPOS>ATOM
     1 N1          26.1390    60.4590    42.3210 N.2          1 FMN5201   0.0000
     2 C2          25.7480    61.2620    43.3790 C.2          1 FMN5201   0.0000
     3 O2          24.7510    60.9680    44.0730 O.2          1 FMN5201   0.0000
     4 N3          26.5000    62.3850    43.6690 N.pl3        1 FMN5201   0.0000
     5 C4          27.6140    62.7200    42.9150 C.2          1 FMN5201   0.0000
     6 O4          28.2380    63.7440    43.2380 O.2          1 FMN5201   0.0000
     7 C4A         27.9990    61.8990    41.8280 C.2          1 FMN5201   0.0000
     8 N5          29.1290    62.1560    41.0450 N.2          1 FMN5201   0.0000
     9 C5A         29.4320    61.3560    39.9640 C.ar         1 FMN5201   0.0000
    10 C6          30.5700    61.6390    39.1790 C.ar         1 FMN5201   0.0000
    11 C7          30.9040    60.8480    38.0850 C.ar         1 FMN5201   0.0000
    12 C7M         32.1160    61.2040    37.2560 C.3          1 FMN5201   0.0000
    13 C8          30.1270    59.6940    37.8320 C.ar         1 FMN5201   0.0000
    14 C8M         30.4510    58.7540    36.7040 C.3          1 FMN5201   0.0000
    15 C9          29.0150    59.3990    38.6320 C.ar         1 FMN5201   0.0000
    16 C9A         28.6450    60.2180    39.6920 C.ar         1 FMN5201   0.0000
    17 N10         27.5360    59.9070    40.5060 N.pl3        1 FMN5201   0.0000
    18 C10         27.2290    60.7600    41.5510 C.2          1 FMN5201   0.0000
    19 C1'         26.6060    58.7440    40.2380 C.3          1 FMN5201   0.0000
    20 C2'         26.9370    57.4020    40.9090 C.3          1 FMN5201   0.0000
    21 O2'         28.3330    57.2200    40.8550 O.3          1 FMN5201   0.0000
    22 C3'         26.1820    56.2820    40.2020 C.3          1 FMN5201   0.0000
    23 O3'         26.6150    56.2700    38.8510 O.3          1 FMN5201   0.0000
    24 C4'         24.6410    56.4220    40.3300 C.3          1 FMN5201   0.0000
    25 O4'         24.2760    56.0310    41.6410 O.3          1 FMN5201   0.0000
    26 C5'         23.9010    55.5620    39.3020 C.3          1 FMN5201   0.0000
    27 O5'         24.4380    54.2500    39.3470 O.3          1 FMN5201   0.0000
    28 P           23.8980    53.0800    40.3050 P.3          1 FMN5201   0.0000
    29 O1P         24.7530    51.8250    40.0810 O.co2        1 FMN5201   0.0000
    30 O2P         24.1210    53.3710    41.7590 O.co2        1 FMN5201  -1.0000
    31 O3P         22.4540    52.8220    40.0310 O.co2        1 FMN5201  -1.0000
    32 H1          26.2352    62.9672    44.4378 H            1 FMN5201   0.0000
    33 H2          31.1463    62.4219    39.4134 H            1 FMN5201   0.0000
    34 H7M1        32.2178    60.5423    36.5131 H            1 FMN5201   0.0000
    35 H7M2        32.0002    62.1203    36.8727 H            1 FMN5201   0.0000
    36 H7M3        32.9322    61.1850    37.8335 H            1 FMN5201   0.0000
    37 H8M1        29.7880    58.0054    36.6930 H            1 FMN5201   0.0000
    38 H8M2        30.4098    59.2485    35.8358 H            1 FMN5201   0.0000
    39 H8M3        31.3706    58.3829    36.8330 H            1 FMN5201   0.0000
    40 H9          28.4753    58.5804    38.4356 H            1 FMN5201   0.0000
    41 H1'1        26.5955    58.5903    39.2499 H            1 FMN5201   0.0000
    42 H1'2        25.6928    59.0142    40.5430 H            1 FMN5201   0.0000
    43 H2'         26.6492    57.4360    41.8661 H            1 FMN5201   0.0000
    44 H13         28.5728    56.3506    41.2870 H            1 FMN5201   0.0000
    45 H3'         26.4503    55.4146    40.6212 H            1 FMN5201   0.0000
    46 H15         26.0300    56.8725    38.3081 H            1 FMN5201   0.0000
    47 H4'         24.3890    57.3802    40.1943 H            1 FMN5201   0.0000
    48 H17         24.5513    55.0820    41.7946 H            1 FMN5201   0.0000
    49 H5'1        24.0255    55.9468    38.3874 H            1 FMN5201   0.0000
    50 H5'2        22.9260    55.5357    39.5227 H            1 FMN5201   0.0000
@<TRIPOS>BOND
     1    1    2       1
     2    1   18       2
     3    2    3       2
     4    2    4       1
     5    4    5       1
     6    5    6       2
     7    5    7       1
     8    7    8       2
     9    7   18       1
    10    8    9       1
    11    9   10      ar
    12    9   16      ar
    13   10   11      ar
    14   11   12       1
    15   11   13      ar
    16   13   14       1
    17   13   15      ar
    18   15   16      ar
    19   16   17       1
    20   17   18       1
    21   17   19       1
    22   19   20       1
    23   20   21       1
    24   20   22       1
    25   22   23       1
    26   22   24       1
    27   24   25       1
    28   24   26       1
    29   26   27       1
    30   27   28       1
    31   28   29      ar
    32   28   30      ar
    33   28   31      ar
    34    4   32       1
    35   10   33       1
    36   12   34       1
    37   12   35       1
    38   12   36       1
    39   14   37       1
    40   14   38       1
    41   14   39       1
    42   15   40       1
    43   19   41       1
    44   19   42       1
    45   20   43       1
    46   21   44       1
    47   22   45       1
    48   23   46       1
    49   24   47       1
    50   25   48       1
    51   26   49       1
    52   26   50       1
@<TRIPOS>SUBSTRUCTURE
     1 FMN5201     1 GROUP             4 A     FMN     0 **** FMN A5201
