@<TRIPOS>MOLECULE
2vx0_7X7_1_ligand
   50    54     1     0     0
SMALL
NO_CHARGES


@<TRIPOS>ATOM
     1 CL1          8.7820     3.2420     9.5940 Cl           1 7X71889   0.0000
     2 C1           8.6840     2.7470    11.2530 C.ar         1 7X71889   0.0000
     3 C2           8.0450     1.5540    11.5940 C.ar         1 7X71889   0.0000
     4 C3           7.9560     1.1520    12.9270 C.ar         1 7X71889   0.0000
     5 C4           8.5420     1.9740    13.8680 C.ar         1 7X71889   0.0000
     6 O1           8.5970     1.7850    15.2230 O.3          1 7X71889   0.0000
     7 C5           9.3990     2.8980    15.6520 C.3          1 7X71889   0.0000
     8 O2           9.6930     3.8150    14.5900 O.3          1 7X71889   0.0000
     9 C6           9.1570     3.1440    13.5230 C.ar         1 7X71889   0.0000
    10 C7           9.2410     3.5700    12.2190 C.ar         1 7X71889   0.0000
    11 N1           9.8880     4.7770    11.9230 N.pl3        1 7X71889   0.0000
    12 C8          11.2780     4.9530    12.0470 C.ar         1 7X71889   0.0000
    13 C9          12.0640     3.8910    12.4910 C.ar         1 7X71889   0.0000
    14 C10         13.3960     4.1330    12.5900 C.ar         1 7X71889   0.0000
    15 N2          13.9280     5.3100    12.2620 N.ar         1 7X71889   0.0000
    16 C11         13.1060     6.2770    11.8500 C.ar         1 7X71889   0.0000
    17 N3          13.7660     7.4890    11.5210 N.pl3        1 7X71889   0.0000
    18 C12         13.1550     8.7250    11.2730 C.ar         1 7X71889   0.0000
    19 C13         11.7930     8.9010    11.3090 C.ar         1 7X71889   0.0000
    20 C14         11.2440    10.1510    11.0740 C.ar         1 7X71889   0.0000
    21 C15         12.0620    11.2180    10.7960 C.ar         1 7X71889   0.0000
    22 C16         13.4290    11.0540    10.7500 C.ar         1 7X71889   0.0000
    23 C17         13.9580     9.8090    10.9980 C.ar         1 7X71889   0.0000
    24 N4          14.2400    12.1770    10.4660 N.pl3        1 7X71889   0.0000
    25 C18         15.6360    11.9280    10.2130 C.3          1 7X71889   0.0000
    26 C19         16.3550    13.2800    10.1270 C.3          1 7X71889   0.0000
    27 O3          15.7430    14.1220     9.1440 O.3          1 7X71889   0.0000
    28 C20         14.3950    14.3890     9.5440 C.3          1 7X71889   0.0000
    29 C21         13.6260    13.0680     9.4760 C.3          1 7X71889   0.0000
    30 N5          11.7730     6.1550    11.7350 N.ar         1 7X71889   0.0000
    31 H1           7.6474     0.9822    10.8764 H            1 7X71889   0.0000
    32 H2           7.4891     0.3072    13.1885 H            1 7X71889   0.0000
    33 H3          10.2608     2.5478    16.0191 H            1 7X71889   0.0000
    34 H4           8.9057     3.3888    16.3702 H            1 7X71889   0.0000
    35 H5           9.3358     5.5493    11.6089 H            1 7X71889   0.0000
    36 H6          11.6694     3.0020    12.7232 H            1 7X71889   0.0000
    37 H7          13.9971     3.4050    12.9195 H            1 7X71889   0.0000
    38 H8          14.7637     7.4580    11.4603 H            1 7X71889   0.0000
    39 H9          11.1955     8.1236    11.5056 H            1 7X71889   0.0000
    40 H10         10.2524    10.2761    11.1068 H            1 7X71889   0.0000
    41 H11         11.6633    12.1192    10.6260 H            1 7X71889   0.0000
    42 H12         14.9505     9.6881    10.9781 H            1 7X71889   0.0000
    43 H13         15.7409    11.4332     9.3504 H            1 7X71889   0.0000
    44 H14         16.0236    11.3851    10.9580 H            1 7X71889   0.0000
    45 H15         17.3113    13.1271     9.8776 H            1 7X71889   0.0000
    46 H16         16.3110    13.7316    11.0182 H            1 7X71889   0.0000
    47 H17         13.9813    15.0573     8.9258 H            1 7X71889   0.0000
    48 H18         14.3801    14.7452    10.4783 H            1 7X71889   0.0000
    49 H19         12.6622    13.2176     9.6967 H            1 7X71889   0.0000
    50 H20         13.7008    12.6715     8.5610 H            1 7X71889   0.0000
@<TRIPOS>BOND
     1    1    2       1
     2    2    3      ar
     3    2   10      ar
     4    3    4      ar
     5    4    5      ar
     6    5    6       1
     7    5    9      ar
     8    6    7       1
     9    7    8       1
    10    8    9       1
    11    9   10      ar
    12   10   11       1
    13   11   12       1
    14   12   13      ar
    15   12   30      ar
    16   13   14      ar
    17   14   15      ar
    18   15   16      ar
    19   16   17       1
    20   16   30      ar
    21   17   18       1
    22   18   19      ar
    23   18   23      ar
    24   19   20      ar
    25   20   21      ar
    26   21   22      ar
    27   22   23      ar
    28   22   24       1
    29   24   25       1
    30   24   29       1
    31   25   26       1
    32   26   27       1
    33   27   28       1
    34   28   29       1
    35    3   31       1
    36    4   32       1
    37    7   33       1
    38    7   34       1
    39   11   35       1
    40   13   36       1
    41   14   37       1
    42   17   38       1
    43   19   39       1
    44   20   40       1
    45   21   41       1
    46   23   42       1
    47   25   43       1
    48   25   44       1
    49   26   45       1
    50   26   46       1
    51   28   47       1
    52   28   48       1
    53   29   49       1
    54   29   50       1
@<TRIPOS>SUBSTRUCTURE
     1 7X71889     1 GROUP             4 A     7X7     0 **** 7X7 A1889
