@<TRIPOS>MOLECULE
1e32_ADP_1_ligand
   39    41     1     0     0
SMALL
NO_CHARGES


@<TRIPOS>ATOM
     1 PB          30.6440    11.9750    16.6570 P.3          1 ADP800   0.0000
     2 O1B         29.9260    12.6700    17.7770 O.co2        1 ADP800   0.0000
     3 O2B         30.3310    12.3990    15.2680 O.co2        1 ADP800  -1.0000
     4 O3B         30.4140    10.3470    16.8000 O.co2        1 ADP800  -1.0000
     5 PA          33.0280    11.7440    18.3420 P.3          1 ADP800   0.0000
     6 O1A         33.8900    12.9070    18.5620 O.co2        1 ADP800   0.0000
     7 O2A         32.1690    11.2780    19.4550 O.co2        1 ADP800  -1.0000
     8 O3A         32.1680    12.0590    17.0180 O.3          1 ADP800   0.0000
     9 O5'         33.8140    10.4850    17.8560 O.3          1 ADP800   0.0000
    10 C5'         34.8390    10.4890    16.8770 C.3          1 ADP800   0.0000
    11 C4'         36.1440     9.9720    17.4610 C.3          1 ADP800   0.0000
    12 O4'         36.6430    10.1250    16.0570 O.3          1 ADP800   0.0000
    13 C3'         36.6910    11.1690    18.1800 C.3          1 ADP800   0.0000
    14 O3'         36.8230    10.9020    19.5930 O.3          1 ADP800   0.0000
    15 C2'         38.0890    11.3970    17.4960 C.3          1 ADP800   0.0000
    16 O2'         39.0910    10.5230    18.1010 O.3          1 ADP800   0.0000
    17 C1'         37.8130    10.9820    16.0290 C.3          1 ADP800   0.0000
    18 N9          37.4840    12.1940    15.1500 N.pl3        1 ADP800   0.0000
    19 C8          36.3350    12.4430    14.5380 C.2          1 ADP800   0.0000
    20 N7          36.3370    13.5300    13.8770 N.2          1 ADP800   0.0000
    21 C5          37.5980    14.0630    14.0700 C.ar         1 ADP800   0.0000
    22 C6          38.2730    15.2540    13.6070 C.ar         1 ADP800   0.0000
    23 N6          37.6590    16.1950    12.8080 N.pl3        1 ADP800   0.0000
    24 N1          39.5640    15.4480    14.0110 N.ar         1 ADP800   0.0000
    25 C2          40.1560    14.5400    14.7880 C.ar         1 ADP800   0.0000
    26 N3          39.6070    13.4040    15.2610 N.ar         1 ADP800   0.0000
    27 C4          38.3340    13.2170    14.8540 C.ar         1 ADP800   0.0000
    28 H5'1        34.9744    11.4235    16.5477 H            1 ADP800   0.0000
    29 H5'2        34.5661     9.9030    16.1140 H            1 ADP800   0.0000
    30 H4'         36.1692     9.0745    17.9013 H            1 ADP800   0.0000
    31 H3'         36.0998    11.9618    18.0315 H            1 ADP800   0.0000
    32 H5          37.1886    11.7115    20.0525 H            1 ADP800   0.0000
    33 H2'         38.3659    12.3562    17.5531 H            1 ADP800   0.0000
    34 H7          39.9756    10.6749    17.6601 H            1 ADP800   0.0000
    35 H1'         38.5970    10.4859    15.6559 H            1 ADP800   0.0000
    36 H9          35.5428    11.8350    14.5908 H            1 ADP800   0.0000
    37 H10         38.1645    17.0050    12.5107 H            1 ADP800   0.0000
    38 H11         36.7081    16.0675    12.5258 H            1 ADP800   0.0000
    39 H12         41.1050    14.7209    15.0461 H            1 ADP800   0.0000
@<TRIPOS>BOND
     1    1    2      ar
     2    1    3      ar
     3    1    4      ar
     4    1    8       1
     5    5    6      ar
     6    5    7      ar
     7    5    8       1
     8    5    9       1
     9    9   10       1
    10   10   11       1
    11   11   12       1
    12   11   13       1
    13   12   17       1
    14   13   14       1
    15   13   15       1
    16   15   16       1
    17   15   17       1
    18   17   18       1
    19   18   19       1
    20   18   27       1
    21   19   20       2
    22   20   21       1
    23   21   22      ar
    24   21   27      ar
    25   22   23       1
    26   22   24      ar
    27   24   25      ar
    28   25   26      ar
    29   26   27      ar
    30   25   39       1
    31   23   38       1
    32   23   37       1
    33   10   28       1
    34   10   29       1
    35   11   30       1
    36   13   31       1
    37   14   32       1
    38   15   33       1
    39   16   34       1
    40   17   35       1
    41   19   36       1
@<TRIPOS>SUBSTRUCTURE
     1 ADP800      1 GROUP             4 A     ADP     0 **** ADP A 800
