@<TRIPOS>MOLECULE
3pgl_RZX_1_ligand
   46    48     1     0     0
SMALL
NO_CHARGES


@<TRIPOS>ATOM
     1 C1           3.4510    11.3720    -3.1790 C.ar         1 RZX257   0.0000
     2 C2           3.1650    11.7250    -4.4860 C.ar         1 RZX257   0.0000
     3 C3           3.8770    12.8740    -5.1010 C.ar         1 RZX257   0.0000
     4 C4           4.8200    13.5610    -4.3510 C.ar         1 RZX257   0.0000
     5 C5           5.0840    13.1730    -3.0410 C.ar         1 RZX257   0.0000
     6 C6           4.4040    12.1030    -2.4750 C.ar         1 RZX257   0.0000
     7 N7           3.4150    13.0050    -6.3620 N.pl3        1 RZX257   0.0000
     8 C8           2.5100    12.0090    -6.4990 C.2          1 RZX257   0.0000
     9 N9           2.3160    11.2310    -5.4170 N.2          1 RZX257   0.0000
    10 S10          1.6520    11.8460    -7.9610 S.o          1 RZX257   0.0000
    11 C11          0.7200    10.4400    -8.3270 C.3          1 RZX257   0.0000
    12 C12          0.5200     9.2660    -7.3910 C.ar         1 RZX257   0.0000
    13 N13          0.5800     8.0950    -8.0410 N.ar         1 RZX257   0.0000
    14 C14          0.4320     6.9230    -7.4130 C.ar         1 RZX257   0.0000
    15 C15          0.1710     6.8500    -6.0490 C.ar         1 RZX257   0.0000
    16 C16          0.0730     8.0370    -5.3300 C.ar         1 RZX257   0.0000
    17 C17          0.2430     9.2710    -5.9990 C.ar         1 RZX257   0.0000
    18 O18          0.6010    12.9330    -7.9940 O.2          1 RZX257   0.0000
    19 O19         -0.1850     7.9650    -3.9690 O.3          1 RZX257   0.0000
    20 C20         -1.4220     7.4430    -3.4690 C.3          1 RZX257   0.0000
    21 C21         -2.4260     8.5890    -3.4360 C.3          1 RZX257   0.0000
    22 C22         -3.7950     8.1420    -2.9570 C.3          1 RZX257   0.0000
    23 O23         -4.7430     8.9200    -3.6980 O.3          1 RZX257   0.0000
    24 C24         -5.8490     8.1420    -4.1630 C.3          1 RZX257   0.0000
    25 C25          0.1340    10.5440    -5.1780 C.3          1 RZX257   0.0000
    26 H1           2.9801    10.6031    -2.7465 H            1 RZX257   0.0000
    27 H2           5.3101    14.3351    -4.7516 H            1 RZX257   0.0000
    28 H3           5.7674    13.6677    -2.5042 H            1 RZX257   0.0000
    29 H4           4.6057    11.8487    -1.5292 H            1 RZX257   0.0000
    30 H5           3.6821    13.6865    -7.0434 H            1 RZX257   0.0000
    31 H6           1.1300    10.0555    -9.1541 H            1 RZX257   0.0000
    32 H7          -0.1988    10.7752    -8.5353 H            1 RZX257   0.0000
    33 H8           0.5112     6.0762    -7.9389 H            1 RZX257   0.0000
    34 H9           0.0566     5.9659    -5.5960 H            1 RZX257   0.0000
    35 H10         -1.2904     7.0783    -2.5472 H            1 RZX257   0.0000
    36 H11         -1.7536     6.7164    -4.0708 H            1 RZX257   0.0000
    37 H12         -2.5150     8.9652    -4.3583 H            1 RZX257   0.0000
    38 H13         -2.0848     9.2977    -2.8185 H            1 RZX257   0.0000
    39 H14         -3.8940     8.3141    -1.9769 H            1 RZX257   0.0000
    40 H15         -3.9263     7.1676    -3.1393 H            1 RZX257   0.0000
    41 H16         -6.4788     8.7288    -4.6719 H            1 RZX257   0.0000
    42 H17         -5.5158     7.4131    -4.7610 H            1 RZX257   0.0000
    43 H18         -6.3259     7.7400    -3.3813 H            1 RZX257   0.0000
    44 H19         -0.0655    10.3108    -4.2263 H            1 RZX257   0.0000
    45 H20          0.9979    11.0455    -5.2242 H            1 RZX257   0.0000
    46 H21         -0.6022    11.1140    -5.5429 H            1 RZX257   0.0000
@<TRIPOS>BOND
     1    1    2      ar
     2    1    6      ar
     3    2    3      ar
     4    2    9       1
     5    3    4      ar
     6    3    7       1
     7    4    5      ar
     8    5    6      ar
     9    7    8       1
    10    8    9       2
    11    8   10       1
    12   10   11       1
    13   10   18       2
    14   11   12       1
    15   12   13      ar
    16   12   17      ar
    17   13   14      ar
    18   14   15      ar
    19   15   16      ar
    20   16   17      ar
    21   16   19       1
    22   17   25       1
    23   19   20       1
    24   20   21       1
    25   21   22       1
    26   22   23       1
    27   23   24       1
    28    1   26       1
    29    4   27       1
    30    5   28       1
    31    6   29       1
    32    7   30       1
    33   11   31       1
    34   11   32       1
    35   14   33       1
    36   15   34       1
    37   20   35       1
    38   20   36       1
    39   21   37       1
    40   21   38       1
    41   22   39       1
    42   22   40       1
    43   24   41       1
    44   24   42       1
    45   24   43       1
    46   25   44       1
    47   25   45       1
    48   25   46       1
@<TRIPOS>SUBSTRUCTURE
     1 RZX257      1 GROUP             4 A     RZX     0 **** RZX A 257
