@<TRIPOS>MOLECULE
3wdm_ADN_3_ligand
   32    34     1     0     0
SMALL
NO_CHARGES


@<TRIPOS>ATOM
     1 O5'         21.2920     1.0200    -7.6680 O.3          1 ADN301   0.0000
     2 C5'         22.5620     0.4350    -7.4330 C.3          1 ADN301   0.0000
     3 C4'         22.4210    -1.0840    -7.2620 C.3          1 ADN301   0.0000
     4 O4'         21.8610    -1.7050    -8.4500 O.3          1 ADN301   0.0000
     5 C3'         23.7910    -1.6980    -7.0100 C.3          1 ADN301   0.0000
     6 O3'         23.8710    -2.1490    -5.6630 O.3          1 ADN301   0.0000
     7 C2'         23.9370    -2.8520    -8.0110 C.3          1 ADN301   0.0000
     8 O2'         24.1190    -4.0650    -7.3090 O.3          1 ADN301   0.0000
     9 C1'         22.6350    -2.8760    -8.8200 C.3          1 ADN301   0.0000
    10 N9          22.8760    -2.8250   -10.2690 N.pl3        1 ADN301   0.0000
    11 C8          23.7010    -1.9480   -10.9440 C.2          1 ADN301   0.0000
    12 N7          23.6540    -2.1810   -12.2200 N.2          1 ADN301   0.0000
    13 C5          22.7990    -3.2170   -12.4510 C.ar         1 ADN301   0.0000
    14 C6          22.3410    -3.9000   -13.6210 C.ar         1 ADN301   0.0000
    15 N6          22.7920    -3.5150   -14.8900 N.pl3        1 ADN301   0.0000
    16 N1          21.4660    -4.9190   -13.4680 N.ar         1 ADN301   0.0000
    17 C2          21.0160    -5.2980   -12.2360 C.ar         1 ADN301   0.0000
    18 N3          21.4190    -4.6720   -11.1200 N.ar         1 ADN301   0.0000
    19 C4          22.2970    -3.6450   -11.1890 C.ar         1 ADN301   0.0000
    20 H5'         21.3955     2.0085    -7.7778 H            1 ADN301   0.0000
    21 H5'1        22.9573     0.8259    -6.6018 H            1 ADN301   0.0000
    22 H5'2        23.1626     0.6259    -8.2094 H            1 ADN301   0.0000
    23 H4'         21.8267    -1.2734    -6.4804 H            1 ADN301   0.0000
    24 H3'         24.5016    -1.0149    -7.1785 H            1 ADN301   0.0000
    25 H6          24.0451    -3.1336    -5.6509 H            1 ADN301   0.0000
    26 H2'         24.7150    -2.6853    -8.6167 H            1 ADN301   0.0000
    27 H8          23.2284    -4.4824    -7.1282 H            1 ADN301   0.0000
    28 H1'         22.1181    -3.7023    -8.5963 H            1 ADN301   0.0000
    29 H10         24.2548    -1.2360   -10.5123 H            1 ADN301   0.0000
    30 H11         22.4673    -3.9973   -15.7036 H            1 ADN301   0.0000
    31 H12         23.4387    -2.7578   -14.9824 H            1 ADN301   0.0000
    32 H13         20.3716    -6.0593   -12.1639 H            1 ADN301   0.0000
@<TRIPOS>BOND
     1    1    2       1
     2    2    3       1
     3    3    4       1
     4    3    5       1
     5    4    9       1
     6    5    6       1
     7    5    7       1
     8    7    8       1
     9    7    9       1
    10    9   10       1
    11   10   11       1
    12   10   19       1
    13   11   12       2
    14   12   13       1
    15   13   14      ar
    16   13   19      ar
    17   14   15       1
    18   14   16      ar
    19   16   17      ar
    20   17   18      ar
    21   18   19      ar
    22    1   20       1
    23    2   21       1
    24    2   22       1
    25    3   23       1
    26    5   24       1
    27    6   25       1
    28    7   26       1
    29    8   27       1
    30    9   28       1
    31   11   29       1
    32   15   30       1
    33   15   31       1
    34   17   32       1
@<TRIPOS>SUBSTRUCTURE
     1 ADN301      1 GROUP             4 C     ADN     0 **** ADN C 301
