@<TRIPOS>MOLECULE
2wb2_FAD_1_ligand
   84    89     1     0     0
SMALL
NO_CHARGES


@<TRIPOS>ATOM
     1 PA           5.1010    -8.5610    12.3880 P.3          1 FAD1510   0.0000
     2 O1A          5.8410    -8.1150    13.6120 O.co2        1 FAD1510   0.0000
     3 O2A          4.5480    -9.9360    12.2950 O.co2        1 FAD1510  -1.0000
     4 O5B          5.9510    -8.3300    11.0850 O.3          1 FAD1510   0.0000
     5 C5B          6.9170    -7.2830    11.1250 C.3          1 FAD1510   0.0000
     6 C4B          6.9970    -6.5900     9.7510 C.3          1 FAD1510   0.0000
     7 O4B          6.5230    -7.4970     8.7750 O.3          1 FAD1510   0.0000
     8 C3B          5.9340    -5.5170     9.8200 C.3          1 FAD1510   0.0000
     9 O3B          6.5670    -4.2340     9.8200 O.3          1 FAD1510   0.0000
    10 C2B          5.2850    -5.6420     8.4900 C.3          1 FAD1510   0.0000
    11 O2B          5.6900    -4.4930     7.7680 O.3          1 FAD1510   0.0000
    12 C1B          6.0110    -6.7120     7.7690 C.3          1 FAD1510   0.0000
    13 N9A          4.8680    -7.5440     7.3740 N.pl3        1 FAD1510   0.0000
    14 C8A          4.2360    -8.4690     8.1050 C.2          1 FAD1510   0.0000
    15 N7A          3.2580    -9.0330     7.4130 N.2          1 FAD1510   0.0000
    16 C5A          3.2460    -8.4540     6.2360 C.ar         1 FAD1510   0.0000
    17 C6A          2.4560    -8.6230     5.1000 C.ar         1 FAD1510   0.0000
    18 N6A          1.4830    -9.5110     5.0600 N.pl3        1 FAD1510   0.0000
    19 N1A          2.6910    -7.8670     4.0270 N.ar         1 FAD1510   0.0000
    20 C2A          3.6970    -6.9860     4.0720 C.ar         1 FAD1510   0.0000
    21 N3A          4.4660    -6.7840     5.1440 N.ar         1 FAD1510   0.0000
    22 C4A          4.2510    -7.5030     6.2270 C.ar         1 FAD1510   0.0000
    23 N1           0.9300    -3.9820     6.7280 N.2          1 FAD1510   0.0000
    24 C2           1.3550    -2.6480     6.6130 C.2          1 FAD1510   0.0000
    25 O2           2.4860    -2.2880     6.9940 O.2          1 FAD1510   0.0000
    26 N3           0.4680    -1.7280     6.0510 N.pl3        1 FAD1510   0.0000
    27 C4          -0.8280    -2.1590     5.6830 C.2          1 FAD1510   0.0000
    28 O4          -1.6840    -1.4200     5.1870 O.2          1 FAD1510   0.0000
    29 C4X         -1.1690    -3.4480     5.8140 C.2          1 FAD1510   0.0000
    30 N5          -2.3800    -3.7580     5.3810 N.2          1 FAD1510   0.0000
    31 C5X         -2.8250    -5.0520     5.4840 C.ar         1 FAD1510   0.0000
    32 C6          -4.1080    -5.3650     5.0270 C.ar         1 FAD1510   0.0000
    33 C7          -4.5390    -6.6800     5.1430 C.ar         1 FAD1510   0.0000
    34 C7M         -5.9480    -7.0980     4.7000 C.3          1 FAD1510   0.0000
    35 C8          -3.6990    -7.6380     5.7180 C.ar         1 FAD1510   0.0000
    36 C8M         -4.2460    -9.0520     5.8700 C.3          1 FAD1510   0.0000
    37 C9          -2.4080    -7.3450     6.1260 C.ar         1 FAD1510   0.0000
    38 C9A         -1.9990    -6.0220     6.0450 C.ar         1 FAD1510   0.0000
    39 N10         -0.7570    -5.6560     6.4980 N.pl3        1 FAD1510   0.0000
    40 C10         -0.3340    -4.3610     6.3280 C.2          1 FAD1510   0.0000
    41 C1'          0.2040    -6.7180     6.8980 C.3          1 FAD1510   0.0000
    42 C2'          0.2200    -7.1630     8.3190 C.3          1 FAD1510   0.0000
    43 O2'         -1.0890    -7.4530     8.7770 O.3          1 FAD1510   0.0000
    44 C3'          0.8150    -6.0660     9.1790 C.3          1 FAD1510   0.0000
    45 O3'          1.9830    -5.4430     8.5420 O.3          1 FAD1510   0.0000
    46 C4'          1.2310    -6.6750    10.5140 C.3          1 FAD1510   0.0000
    47 O4'          0.0710    -7.1780    11.1530 O.3          1 FAD1510   0.0000
    48 C5'          1.8520    -5.6140    11.4260 C.3          1 FAD1510   0.0000
    49 O5'          2.0180    -6.2100    12.7070 O.3          1 FAD1510   0.0000
    50 P            3.5550    -6.2460    13.0410 P.3          1 FAD1510   0.0000
    51 O1P          4.2120    -5.0020    12.4750 O.co2        1 FAD1510   0.0000
    52 O2P          3.7090    -6.5600    14.4430 O.co2        1 FAD1510  -1.0000
    53 O3P          3.8700    -7.5310    12.1180 O.3          1 FAD1510   0.0000
    54 H5B1         7.8115    -7.6659    11.3558 H            1 FAD1510   0.0000
    55 H5B2         6.6518    -6.6136    11.8190 H            1 FAD1510   0.0000
    56 H4B          7.9067    -6.2298     9.5445 H            1 FAD1510   0.0000
    57 H3B          5.2979    -5.6418    10.5814 H            1 FAD1510   0.0000
    58 H5           6.3276    -3.7442    10.6583 H            1 FAD1510   0.0000
    59 H2B          4.2944    -5.7734     8.5284 H            1 FAD1510   0.0000
    60 H7           6.2860    -3.9315     8.3421 H            1 FAD1510   0.0000
    61 H1B          6.6408    -6.4287     7.0458 H            1 FAD1510   0.0000
    62 H8A          4.4708    -8.7033     9.0484 H            1 FAD1510   0.0000
    63 H6A1         0.9315    -9.6115     4.2319 H            1 FAD1510   0.0000
    64 H6A2         1.2962   -10.0843     5.8577 H            1 FAD1510   0.0000
    65 H2A          3.8843    -6.4455     3.2518 H            1 FAD1510   0.0000
    66 H13          0.7450    -0.7775     5.9105 H            1 FAD1510   0.0000
    67 H14         -4.6981    -4.6630     4.6283 H            1 FAD1510   0.0000
    68 H7M1        -6.0712    -8.0772     4.8610 H            1 FAD1510   0.0000
    69 H7M2        -6.6280    -6.5858     5.2246 H            1 FAD1510   0.0000
    70 H7M3        -6.0626    -6.9033     3.7259 H            1 FAD1510   0.0000
    71 H8M1        -3.5511    -9.6347     6.2915 H            1 FAD1510   0.0000
    72 H8M2        -5.0613    -9.0336     6.4487 H            1 FAD1510   0.0000
    73 H8M3        -4.4846    -9.4157     4.9696 H            1 FAD1510   0.0000
    74 H21         -1.7953    -8.0588     6.4654 H            1 FAD1510   0.0000
    75 H1'1         1.1212    -6.3823     6.6834 H            1 FAD1510   0.0000
    76 H1'2         0.0043    -7.5227     6.3389 H            1 FAD1510   0.0000
    77 H2'          0.7846    -7.9845     8.3988 H            1 FAD1510   0.0000
    78 H25         -1.6567    -6.6329     8.7049 H            1 FAD1510   0.0000
    79 H3'          0.1199    -5.3658     9.3421 H            1 FAD1510   0.0000
    80 H27          1.6846    -4.6702     7.9819 H            1 FAD1510   0.0000
    81 H4'          1.8840    -7.4167    10.3610 H            1 FAD1510   0.0000
    82 H29         -0.5921    -7.4655    10.4619 H            1 FAD1510   0.0000
    83 H5'1         1.2461    -4.8212    11.4923 H            1 FAD1510   0.0000
    84 H5'2         2.7386    -5.3265    11.0638 H            1 FAD1510   0.0000
@<TRIPOS>BOND
     1    1    2      ar
     2    1    3      ar
     3    1    4       1
     4    1   53       1
     5    4    5       1
     6    5    6       1
     7    6    7       1
     8    6    8       1
     9    7   12       1
    10    8    9       1
    11    8   10       1
    12   10   11       1
    13   10   12       1
    14   12   13       1
    15   13   14       1
    16   13   22       1
    17   14   15       2
    18   15   16       1
    19   16   17      ar
    20   16   22      ar
    21   17   18       1
    22   17   19      ar
    23   19   20      ar
    24   20   21      ar
    25   21   22      ar
    26   23   24       1
    27   23   40       2
    28   24   25       2
    29   24   26       1
    30   26   27       1
    31   27   28       2
    32   27   29       1
    33   29   30       2
    34   29   40       1
    35   30   31       1
    36   31   32      ar
    37   31   38      ar
    38   32   33      ar
    39   33   34       1
    40   33   35      ar
    41   35   36       1
    42   35   37      ar
    43   37   38      ar
    44   38   39       1
    45   39   40       1
    46   39   41       1
    47   41   42       1
    48   42   43       1
    49   42   44       1
    50   44   45       1
    51   44   46       1
    52   46   47       1
    53   46   48       1
    54   48   49       1
    55   49   50       1
    56   50   51      ar
    57   50   52      ar
    58   50   53       1
    59   48   84       1
    60    5   54       1
    61    5   55       1
    62    6   56       1
    63    8   57       1
    64    9   58       1
    65   10   59       1
    66   11   60       1
    67   12   61       1
    68   14   62       1
    69   18   63       1
    70   18   64       1
    71   20   65       1
    72   26   66       1
    73   32   67       1
    74   34   68       1
    75   34   69       1
    76   34   70       1
    77   36   71       1
    78   36   72       1
    79   36   73       1
    80   37   74       1
    81   41   75       1
    82   41   76       1
    83   42   77       1
    84   43   78       1
    85   44   79       1
    86   45   80       1
    87   46   81       1
    88   47   82       1
    89   48   83       1
@<TRIPOS>SUBSTRUCTURE
     1 FAD1510     1 GROUP             4 A     FAD     0 **** FAD A1510
