@<TRIPOS>MOLECULE
2vdv_SAM_2_ligand
   50    52     1     0     0
SMALL
NO_CHARGES


@<TRIPOS>ATOM
     1 N           31.8630   -20.6420    -9.2720 N.4          1 SAM1287   1.0000
     2 CA          32.3330   -19.3330    -8.8120 C.3          1 SAM1287   0.0000
     3 C           32.5100   -18.3450    -9.9670 C.2          1 SAM1287   0.0000
     4 O           32.3950   -18.7130   -11.1410 O.co2        1 SAM1287   0.0000
     5 OXT         32.7740   -17.1570    -9.7520 O.co2        1 SAM1287  -1.0000
     6 CB          33.6490   -19.4850    -8.0550 C.3          1 SAM1287   0.0000
     7 CG          34.8170   -20.0330    -8.8670 C.3          1 SAM1287   0.0000
     8 SD          36.2480   -20.3640    -7.8020 S.3          1 SAM1287   1.0000
     9 CE          37.6280   -20.5110    -8.9690 C.3          1 SAM1287   0.0000
    10 C5'         35.9290   -22.1000    -7.3800 C.3          1 SAM1287   0.0000
    11 C4'         35.1420   -22.1770    -6.0760 C.3          1 SAM1287   0.0000
    12 O4'         34.8440   -23.5150    -5.7620 O.3          1 SAM1287   0.0000
    13 C3'         35.9450   -21.6040    -4.9220 C.3          1 SAM1287   0.0000
    14 O3'         35.1550   -20.6540    -4.2470 O.3          1 SAM1287   0.0000
    15 C2'         36.2260   -22.7690    -3.9960 C.3          1 SAM1287   0.0000
    16 O2'         36.0260   -22.3770    -2.6550 O.3          1 SAM1287   0.0000
    17 C1'         35.1900   -23.8030    -4.4230 C.3          1 SAM1287   0.0000
    18 N9          35.6890   -25.1860    -4.3670 N.pl3        1 SAM1287   0.0000
    19 C8          36.9450   -25.6370    -4.6920 C.2          1 SAM1287   0.0000
    20 N7          36.9680   -26.9820    -4.5110 N.2          1 SAM1287   0.0000
    21 C5          35.7470   -27.3860    -4.0790 C.ar         1 SAM1287   0.0000
    22 C6          35.2260   -28.6290    -3.7440 C.ar         1 SAM1287   0.0000
    23 N6          35.9990   -29.7070    -3.8260 N.pl3        1 SAM1287   0.0000
    24 N1          33.9090   -28.7410    -3.3330 N.ar         1 SAM1287   0.0000
    25 C2          33.1180   -27.6160    -3.2500 C.ar         1 SAM1287   0.0000
    26 N3          33.6480   -26.3770    -3.5750 N.ar         1 SAM1287   0.0000
    27 C4          34.9330   -26.2640    -3.9890 C.ar         1 SAM1287   0.0000
    28 H1          31.7614   -21.2542    -8.4878 H            1 SAM1287   0.0000
    29 H2          30.9800   -20.5372    -9.7296 H            1 SAM1287   0.0000
    30 HA          31.6515   -18.9595    -8.1826 H            1 SAM1287   0.0000
    31 HB1         33.4916   -20.1044    -7.2859 H            1 SAM1287   0.0000
    32 HB2         33.9107   -18.5840    -7.7092 H            1 SAM1287   0.0000
    33 HG1         35.0749   -19.3627    -9.5628 H            1 SAM1287   0.0000
    34 HG2         34.5361   -20.8836    -9.3115 H            1 SAM1287   0.0000
    35 HE1         38.4719   -20.6964    -8.4656 H            1 SAM1287   0.0000
    36 HE2         37.4479   -21.2610    -9.6055 H            1 SAM1287   0.0000
    37 HE3         37.7253   -19.6567    -9.4795 H            1 SAM1287   0.0000
    38 H5'1        36.7991   -22.5809    -7.2718 H            1 SAM1287   0.0000
    39 H5'2        35.4003   -22.5283    -8.1129 H            1 SAM1287   0.0000
    40 H4'         34.2899   -21.6627    -6.1733 H            1 SAM1287   0.0000
    41 H3'         36.7965   -21.1935    -5.2483 H            1 SAM1287   0.0000
    42 H15         34.3282   -21.0953    -3.8983 H            1 SAM1287   0.0000
    43 H2'         37.1538   -23.1166    -4.1315 H            1 SAM1287   0.0000
    44 H17         35.0754   -22.5481    -2.3959 H            1 SAM1287   0.0000
    45 H1'         34.3786   -23.7188    -3.8446 H            1 SAM1287   0.0000
    46 H19         37.7086   -25.0733    -5.0068 H            1 SAM1287   0.0000
    47 H20         35.6311   -30.6055    -3.5865 H            1 SAM1287   0.0000
    48 H21         36.9485   -29.6196    -4.1272 H            1 SAM1287   0.0000
    49 H22         32.1652   -27.6929    -2.9564 H            1 SAM1287   0.0000
    50 H23         32.5267   -21.0282    -9.9126 H            1 SAM1287   0.0000
@<TRIPOS>BOND
     1    1    2       1
     2    2    3       1
     3    2    6       1
     4    3    4      ar
     5    3    5      ar
     6    6    7       1
     7    7    8       1
     8    8    9       1
     9    8   10       1
    10   10   11       1
    11   11   12       1
    12   11   13       1
    13   12   17       1
    14   13   14       1
    15   13   15       1
    16   15   16       1
    17   15   17       1
    18   17   18       1
    19   18   19       1
    20   18   27       1
    21   19   20       2
    22   20   21       1
    23   21   22      ar
    24   21   27      ar
    25   22   23       1
    26   22   24      ar
    27   24   25      ar
    28   25   26      ar
    29   26   27      ar
    30    1   28       1
    31    1   29       1
    32    2   30       1
    33    1   50       1
    34    6   31       1
    35    6   32       1
    36    7   33       1
    37    7   34       1
    38    9   35       1
    39    9   36       1
    40    9   37       1
    41   10   38       1
    42   10   39       1
    43   11   40       1
    44   13   41       1
    45   14   42       1
    46   15   43       1
    47   16   44       1
    48   17   45       1
    49   19   46       1
    50   23   47       1
    51   23   48       1
    52   25   49       1
@<TRIPOS>SUBSTRUCTURE
     1 SAM1287     1 GROUP             4 F     SAM     0 **** SAM F1287
