@<TRIPOS>MOLECULE
2x4f_16X_2_ligand
   35    38     1     0     0
SMALL
NO_CHARGES


@<TRIPOS>ATOM
     1 N7A         40.9410    46.5930     2.8660 N.pl3        1 16X1371   0.0000
     2 C3A         42.0360    46.5560     2.1490 C.2          1 16X1371   0.0000
     3 N2A         43.1100    47.3200     2.3550 N.2          1 16X1371   0.0000
     4 C1A         44.1190    47.1210     1.4820 C.2          1 16X1371   0.0000
     5 C6A         45.3510    47.7530     1.4230 C.3          1 16X1371   0.0000
     6 S4A         42.2780    45.5560     0.8690 S.3          1 16X1371   0.0000
     7 C5A         43.7720    46.1330     0.5530 C.2          1 16X1371   0.0000
     8 C4          44.5100    45.6300    -0.4890 C.ar         1 16X1371   0.0000
     9 N3          43.9110    44.7440    -1.2900 N.ar         1 16X1371   0.0000
    10 C5          45.8210    46.0080    -0.7090 C.ar         1 16X1371   0.0000
    11 C6          46.4700    45.4270    -1.7790 C.ar         1 16X1371   0.0000
    12 N1          45.8400    44.5540    -2.5410 N.ar         1 16X1371   0.0000
    13 C2          44.5700    44.2040    -2.3150 C.ar         1 16X1371   0.0000
    14 N7          44.0140    43.3100    -3.1280 N.pl3        1 16X1371   0.0000
    15 C1B         42.7240    43.0060    -3.2220 C.ar         1 16X1371   0.0000
    16 C6B         42.2100    42.6370    -4.4620 C.ar         1 16X1371   0.0000
    17 C2B         41.8750    43.0230    -2.1280 C.ar         1 16X1371   0.0000
    18 C3B         40.5310    42.6880    -2.2740 C.ar         1 16X1371   0.0000
    19 N7B         39.7340    42.6970    -1.2050 N.pl3        1 16X1371   0.0000
    20 O8B         38.8610    42.0220    -0.4010 O.2          1 16X1371   0.0000
    21 O9B         39.2520    43.3470    -0.0920 O.2          1 16X1371   0.0000
    22 C4B         40.0300    42.3300    -3.5210 C.ar         1 16X1371   0.0000
    23 C5B         40.8670    42.3090    -4.6270 C.ar         1 16X1371   0.0000
    24 H7A1        40.1782    45.9851     2.6455 H            1 16X1371   0.0000
    25 H7A2        40.8675    47.2292     3.6341 H            1 16X1371   0.0000
    26 H6A1        45.8795    47.3824     0.6592 H            1 16X1371   0.0000
    27 H6A2        45.2159    48.7348     1.2896 H            1 16X1371   0.0000
    28 H6A3        45.8465    47.5978     2.2776 H            1 16X1371   0.0000
    29 H6          46.2788    46.6730    -0.1189 H            1 16X1371   0.0000
    30 H7          47.4200    45.6683    -1.9772 H            1 16X1371   0.0000
    31 H8          44.6344    42.8126    -3.7344 H            1 16X1371   0.0000
    32 H6B         42.8203    42.6068    -5.2536 H            1 16X1371   0.0000
    33 H2B         42.2290    43.2773    -1.2280 H            1 16X1371   0.0000
    34 H4B         39.0650    42.0874    -3.6205 H            1 16X1371   0.0000
    35 H5B         40.5114    42.0622    -5.5285 H            1 16X1371   0.0000
@<TRIPOS>BOND
     1    1    2       1
     2    2    3       2
     3    2    6       1
     4    3    4       1
     5    4    5       1
     6    4    7       2
     7    6    7       1
     8    7    8       1
     9    8    9      ar
    10    8   10      ar
    11    9   13      ar
    12   10   11      ar
    13   11   12      ar
    14   12   13      ar
    15   13   14       1
    16   14   15       1
    17   15   16      ar
    18   15   17      ar
    19   16   23      ar
    20   17   18      ar
    21   18   19       1
    22   18   22      ar
    23   19   20       1
    24   19   21       1
    25   20   21       1
    26   22   23      ar
    27    1   24       1
    28    1   25       1
    29    5   26       1
    30    5   27       1
    31    5   28       1
    32   10   29       1
    33   11   30       1
    34   14   31       1
    35   16   32       1
    36   17   33       1
    37   22   34       1
    38   23   35       1
@<TRIPOS>SUBSTRUCTURE
     1 16X1371     1 GROUP             4 B     16X     0 **** 16X B1371
