@<TRIPOS>MOLECULE
3h3r_14H_2_ligand
   69    69     1     0     0
SMALL
NO_CHARGES


@<TRIPOS>ATOM
     1 O21         -4.1270     0.8210    -3.9070 O.2          1 14H600   0.0000
     2 C21         -4.5360     1.2070    -4.9840 C.2          1 14H600   0.0000
     3 N2          -5.4320     0.6250    -5.7620 N.am         1 14H600   0.0000
     4 C2          -6.3250    -0.4750    -5.4580 C.3          1 14H600   0.0000
     5 C1          -7.6270    -0.2250    -6.1970 C.3          1 14H600   0.0000
     6 O1          -7.3000    -0.1860    -7.5920 O.3          1 14H600   0.0000
     7 C3          -5.6750    -1.7770    -5.9460 C.3          1 14H600   0.0000
     8 C4          -4.3140    -1.7310    -5.2860 C.3          1 14H600   0.0000
     9 C5          -3.0870    -1.6390    -6.1160 C.ar         1 14H600   0.0000
    10 C6          -3.0430    -1.9560    -7.4670 C.ar         1 14H600   0.0000
    11 C7          -1.8590    -1.7210    -8.1780 C.ar         1 14H600   0.0000
    12 C8          -0.7600    -1.1360    -7.5670 C.ar         1 14H600   0.0000
    13 C9          -0.8140    -0.7850    -6.2230 C.ar         1 14H600   0.0000
    14 C10         -1.9870    -1.0280    -5.5260 C.ar         1 14H600   0.0000
    15 O4          -4.2310    -2.1740    -3.9530 O.3          1 14H600   0.0000
    16 C22         -4.0390     2.5150    -5.5350 C.3          1 14H600   0.0000
    17 C23         -2.5930     2.4220    -5.9630 C.3          1 14H600   0.0000
    18 C24         -2.2830     3.7110    -6.7380 C.3          1 14H600   0.0000
    19 C25         -1.5970     3.3650    -8.0560 C.3          1 14H600   0.0000
    20 C26         -0.1130     3.1140    -7.7940 C.3          1 14H600   0.0000
    21 C27          0.7050     2.9690    -9.0740 C.3          1 14H600   0.0000
    22 C28          0.4490     1.5790    -9.6740 C.3          1 14H600   0.0000
    23 C29         -0.2030     1.6490   -11.0540 C.3          1 14H600   0.0000
    24 C30          0.7840     1.2110   -12.1310 C.3          1 14H600   0.0000
    25 C31          0.8280    -0.3020   -12.3250 C.3          1 14H600   0.0000
    26 C32          1.9840    -0.9140   -11.5460 C.3          1 14H600   0.0000
    27 C33          1.5310    -2.2410   -10.9430 C.3          1 14H600   0.0000
    28 C34          0.1440    -2.5960   -11.4480 C.3          1 14H600   0.0000
    29 H1          -5.5036     0.9948    -6.6883 H            1 14H600   0.0000
    30 H2          -6.4915    -0.5213    -4.4730 H            1 14H600   0.0000
    31 H3          -8.0253     0.6465    -5.9107 H            1 14H600   0.0000
    32 H4          -8.2756    -0.9639    -6.0144 H            1 14H600   0.0000
    33 H5          -7.0794     0.7528    -7.8565 H            1 14H600   0.0000
    34 H6          -5.5931    -1.7886    -6.9426 H            1 14H600   0.0000
    35 H7          -6.1958    -2.5758    -5.6450 H            1 14H600   0.0000
    36 H8          -4.3501    -0.7573    -5.0608 H            1 14H600   0.0000
    37 H9          -3.8425    -2.3453    -7.9245 H            1 14H600   0.0000
    38 H10         -1.8054    -1.9795    -9.1425 H            1 14H600   0.0000
    39 H11          0.0727    -0.9664    -8.0941 H            1 14H600   0.0000
    40 H12         -0.0261    -0.3675    -5.7703 H            1 14H600   0.0000
    41 H13         -2.0438    -0.7544    -4.5658 H            1 14H600   0.0000
    42 H14         -3.5966    -2.9450    -3.8968 H            1 14H600   0.0000
    43 H15         -4.1244     3.2183    -4.8293 H            1 14H600   0.0000
    44 H16         -4.5964     2.7671    -6.3260 H            1 14H600   0.0000
    45 H17         -2.4575     1.6245    -6.5509 H            1 14H600   0.0000
    46 H18         -1.9995     2.3498    -5.1614 H            1 14H600   0.0000
    47 H19         -1.6792     4.2909    -6.1910 H            1 14H600   0.0000
    48 H20         -3.1352     4.1998    -6.9249 H            1 14H600   0.0000
    49 H21         -1.7002     4.1253    -8.6973 H            1 14H600   0.0000
    50 H22         -2.0126     2.5425    -8.4444 H            1 14H600   0.0000
    51 H23         -0.0218     2.2728    -7.2611 H            1 14H600   0.0000
    52 H24          0.2518     3.8827    -7.2686 H            1 14H600   0.0000
    53 H25          1.6775     3.0699    -8.8640 H            1 14H600   0.0000
    54 H26          0.4307     3.6730    -9.7291 H            1 14H600   0.0000
    55 H27         -0.1543     1.0706    -9.0596 H            1 14H600   0.0000
    56 H28          1.3225     1.0991    -9.7559 H            1 14H600   0.0000
    57 H29         -0.4920     2.5891   -11.2346 H            1 14H600   0.0000
    58 H30         -1.0003     1.0457   -11.0727 H            1 14H600   0.0000
    59 H31          1.6974     1.5251   -11.8720 H            1 14H600   0.0000
    60 H32          0.5187     1.6351   -12.9969 H            1 14H600   0.0000
    61 H33          0.9444    -0.5045   -13.2973 H            1 14H600   0.0000
    62 H34         -0.0313    -0.6990   -12.0023 H            1 14H600   0.0000
    63 H35          2.2622    -0.2912   -10.8147 H            1 14H600   0.0000
    64 H36          2.7564    -1.0718   -12.1613 H            1 14H600   0.0000
    65 H37          1.5100    -2.1616    -9.9464 H            1 14H600   0.0000
    66 H38          2.1734    -2.9607   -11.2066 H            1 14H600   0.0000
    67 H39         -0.1439    -3.4661   -11.0478 H            1 14H600   0.0000
    68 H40         -0.5005    -1.8783   -11.1843 H            1 14H600   0.0000
    69 H41          0.1628    -2.6774   -12.4445 H            1 14H600   0.0000
@<TRIPOS>BOND
     1    1    2       2
     2    2    3      am
     3    2   16       1
     4    3    4       1
     5    4    5       1
     6    4    7       1
     7    5    6       1
     8    7    8       1
     9    8    9       1
    10    8   15       1
    11    9   10      ar
    12    9   14      ar
    13   10   11      ar
    14   11   12      ar
    15   12   13      ar
    16   13   14      ar
    17   16   17       1
    18   17   18       1
    19   18   19       1
    20   19   20       1
    21   20   21       1
    22   21   22       1
    23   22   23       1
    24   23   24       1
    25   24   25       1
    26   25   26       1
    27   26   27       1
    28   27   28       1
    29    3   29       1
    30    4   30       1
    31    5   31       1
    32    5   32       1
    33    6   33       1
    34    7   34       1
    35    7   35       1
    36    8   36       1
    37   10   37       1
    38   11   38       1
    39   12   39       1
    40   13   40       1
    41   14   41       1
    42   15   42       1
    43   16   43       1
    44   16   44       1
    45   17   45       1
    46   17   46       1
    47   18   47       1
    48   18   48       1
    49   19   49       1
    50   19   50       1
    51   20   51       1
    52   20   52       1
    53   21   53       1
    54   21   54       1
    55   22   55       1
    56   22   56       1
    57   23   57       1
    58   23   58       1
    59   24   59       1
    60   24   60       1
    61   25   61       1
    62   25   62       1
    63   26   63       1
    64   26   64       1
    65   27   65       1
    66   27   66       1
    67   28   67       1
    68   28   68       1
    69   28   69       1
@<TRIPOS>SUBSTRUCTURE
     1 14H600      1 GROUP             4 B     14H     0 **** 14H B 600
