@<TRIPOS>MOLECULE
4at0_FAD_1_ligand
   84    89     1     0     0
SMALL
NO_CHARGES


@<TRIPOS>ATOM
     1 PA          33.3790    32.4360    41.4690 P.3          1 FAD1493   0.0000
     2 O1A         33.1290    31.8460    42.8080 O.co2        1 FAD1493   0.0000
     3 O2A         32.7110    31.8840    40.2610 O.co2        1 FAD1493  -1.0000
     4 O5B         33.0500    33.9820    41.5900 O.3          1 FAD1493   0.0000
     5 C5B         33.3270    34.8640    40.4610 C.3          1 FAD1493   0.0000
     6 C4B         32.2200    35.9410    40.4440 C.3          1 FAD1493   0.0000
     7 O4B         32.5650    36.9250    39.4460 O.3          1 FAD1493   0.0000
     8 C3B         30.8570    35.3160    40.0520 C.3          1 FAD1493   0.0000
     9 O3B         29.8500    35.6750    41.0400 O.3          1 FAD1493   0.0000
    10 C2B         30.5760    35.9300    38.7020 C.3          1 FAD1493   0.0000
    11 O2B         29.1350    36.1030    38.4300 O.3          1 FAD1493   0.0000
    12 C1B         31.3300    37.2820    38.7610 C.3          1 FAD1493   0.0000
    13 N9A         31.7400    37.8470    37.4720 N.pl3        1 FAD1493   0.0000
    14 C8A         32.1160    37.2490    36.3330 C.2          1 FAD1493   0.0000
    15 N7A         32.3870    38.1950    35.4230 N.2          1 FAD1493   0.0000
    16 C5A         32.2070    39.3920    35.9890 C.ar         1 FAD1493   0.0000
    17 C6A         32.3230    40.6840    35.5370 C.ar         1 FAD1493   0.0000
    18 N6A         32.7370    40.9310    34.2640 N.pl3        1 FAD1493   0.0000
    19 N1A         32.0490    41.6920    36.3380 N.ar         1 FAD1493   0.0000
    20 C2A         31.6580    41.4760    37.6350 C.ar         1 FAD1493   0.0000
    21 N3A         31.5310    40.1790    38.0790 N.ar         1 FAD1493   0.0000
    22 C4A         31.8020    39.1670    37.2470 C.ar         1 FAD1493   0.0000
    23 N1          36.6880    23.7650    43.5980 N.2          1 FAD1493   0.0000
    24 C2          37.1730    23.4340    44.8370 C.2          1 FAD1493   0.0000
    25 O2          38.2170    23.9000    45.2490 O.2          1 FAD1493   0.0000
    26 N3          36.4440    22.5610    45.6800 N.pl3        1 FAD1493   0.0000
    27 C4          35.2540    21.9680    45.2410 C.2          1 FAD1493   0.0000
    28 O4          34.6370    21.1820    45.9780 O.2          1 FAD1493   0.0000
    29 C4X         34.7900    22.2720    43.9590 C.2          1 FAD1493   0.0000
    30 N5          33.6610    21.6860    43.4890 N.2          1 FAD1493   0.0000
    31 C5X         33.3420    21.8490    42.1720 C.ar         1 FAD1493   0.0000
    32 C6          32.3340    21.0750    41.5730 C.ar         1 FAD1493   0.0000
    33 C7          31.9790    21.2550    40.2230 C.ar         1 FAD1493   0.0000
    34 C7M         30.9400    20.4540    39.6370 C.3          1 FAD1493   0.0000
    35 C8          32.6670    22.2180    39.4470 C.ar         1 FAD1493   0.0000
    36 C8M         32.3410    22.4580    38.0710 C.3          1 FAD1493   0.0000
    37 C9          33.6660    22.9970    40.0570 C.ar         1 FAD1493   0.0000
    38 C9A         34.0190    22.8150    41.4010 C.ar         1 FAD1493   0.0000
    39 N10         35.0320    23.5350    41.9720 N.pl3        1 FAD1493   0.0000
    40 C10         35.5010    23.1740    43.1640 C.2          1 FAD1493   0.0000
    41 C1'         35.6390    24.7480    41.3490 C.3          1 FAD1493   0.0000
    42 C2'         35.1600    26.0380    42.0430 C.3          1 FAD1493   0.0000
    43 O2'         33.7430    25.9830    42.0530 O.3          1 FAD1493   0.0000
    44 C3'         35.6190    27.2890    41.2740 C.3          1 FAD1493   0.0000
    45 O3'         36.8820    27.1070    40.6300 O.3          1 FAD1493   0.0000
    46 C4'         35.7290    28.4750    42.2280 C.3          1 FAD1493   0.0000
    47 O4'         34.4610    28.6260    42.8770 O.3          1 FAD1493   0.0000
    48 C5'         36.1030    29.7690    41.4960 C.3          1 FAD1493   0.0000
    49 O5'         36.2070    30.8110    42.5170 O.3          1 FAD1493   0.0000
    50 P           36.2870    32.3550    42.0110 P.3          1 FAD1493   0.0000
    51 O1P         37.4110    32.5460    41.0910 O.co2        1 FAD1493   0.0000
    52 O2P         36.1300    33.1940    43.2690 O.co2        1 FAD1493  -1.0000
    53 O3P         34.9660    32.4100    41.0270 O.3          1 FAD1493   0.0000
    54 H5B1        33.3123    34.3434    39.6073 H            1 FAD1493   0.0000
    55 H5B2        34.2226    35.2944    40.5736 H            1 FAD1493   0.0000
    56 H4B         32.1514    36.3748    41.3424 H            1 FAD1493   0.0000
    57 H3B         30.9355    34.3220    39.9760 H            1 FAD1493   0.0000
    58 H5          29.7597    36.6702    41.0775 H            1 FAD1493   0.0000
    59 H2B         30.9801    35.3576    37.9885 H            1 FAD1493   0.0000
    60 H7          28.7345    36.7020    39.1234 H            1 FAD1493   0.0000
    61 H1B         30.8122    37.9526    39.2923 H            1 FAD1493   0.0000
    62 H8A         32.1831    36.2621    36.1866 H            1 FAD1493   0.0000
    63 H6A1        32.8200    41.8731    33.9391 H            1 FAD1493   0.0000
    64 H6A2        32.9581    40.1703    33.6537 H            1 FAD1493   0.0000
    65 H2A         31.4690    42.2450    38.2456 H            1 FAD1493   0.0000
    66 H13         36.7831    22.3655    46.6002 H            1 FAD1493   0.0000
    67 H14         31.8595    20.3826    42.1165 H            1 FAD1493   0.0000
    68 H7M1        30.8200    20.7129    38.6786 H            1 FAD1493   0.0000
    69 H7M2        31.1926    19.4880    39.6922 H            1 FAD1493   0.0000
    70 H7M3        30.0843    20.6036    40.1324 H            1 FAD1493   0.0000
    71 H8M1        32.9392    23.1715    37.7063 H            1 FAD1493   0.0000
    72 H8M2        32.4682    21.6161    37.5466 H            1 FAD1493   0.0000
    73 H8M3        31.3883    22.7537    38.0008 H            1 FAD1493   0.0000
    74 H21         34.1356    23.6973    39.5193 H            1 FAD1493   0.0000
    75 H1'1        35.3793    24.7824    40.3839 H            1 FAD1493   0.0000
    76 H1'2        36.6344    24.6887    41.4244 H            1 FAD1493   0.0000
    77 H2'         35.5061    26.0688    42.9807 H            1 FAD1493   0.0000
    78 H25         33.3754    26.7676    41.5537 H            1 FAD1493   0.0000
    79 H3'         34.9344    27.5034    40.5773 H            1 FAD1493   0.0000
    80 H27         36.7746    27.2331    39.6438 H            1 FAD1493   0.0000
    81 H4'         36.4264    28.2763    42.9166 H            1 FAD1493   0.0000
    82 H29         34.5010    29.3982    43.5111 H            1 FAD1493   0.0000
    83 H5'1        35.3947    30.0066    40.8313 H            1 FAD1493   0.0000
    84 H5'2        36.9783    29.6585    41.0252 H            1 FAD1493   0.0000
@<TRIPOS>BOND
     1    1    2      ar
     2    1    3      ar
     3    1    4       1
     4    1   53       1
     5    4    5       1
     6    5    6       1
     7    6    7       1
     8    6    8       1
     9    7   12       1
    10    8    9       1
    11    8   10       1
    12   10   11       1
    13   10   12       1
    14   12   13       1
    15   13   14       1
    16   13   22       1
    17   14   15       2
    18   15   16       1
    19   16   17      ar
    20   16   22      ar
    21   17   18       1
    22   17   19      ar
    23   19   20      ar
    24   20   21      ar
    25   21   22      ar
    26   23   24       1
    27   23   40       2
    28   24   25       2
    29   24   26       1
    30   26   27       1
    31   27   28       2
    32   27   29       1
    33   29   30       2
    34   29   40       1
    35   30   31       1
    36   31   32      ar
    37   31   38      ar
    38   32   33      ar
    39   33   34       1
    40   33   35      ar
    41   35   36       1
    42   35   37      ar
    43   37   38      ar
    44   38   39       1
    45   39   40       1
    46   39   41       1
    47   41   42       1
    48   42   43       1
    49   42   44       1
    50   44   45       1
    51   44   46       1
    52   46   47       1
    53   46   48       1
    54   48   49       1
    55   49   50       1
    56   50   51      ar
    57   50   52      ar
    58   50   53       1
    59   48   84       1
    60    5   54       1
    61    5   55       1
    62    6   56       1
    63    8   57       1
    64    9   58       1
    65   10   59       1
    66   11   60       1
    67   12   61       1
    68   14   62       1
    69   18   63       1
    70   18   64       1
    71   20   65       1
    72   26   66       1
    73   32   67       1
    74   34   68       1
    75   34   69       1
    76   34   70       1
    77   36   71       1
    78   36   72       1
    79   36   73       1
    80   37   74       1
    81   41   75       1
    82   41   76       1
    83   42   77       1
    84   43   78       1
    85   44   79       1
    86   45   80       1
    87   46   81       1
    88   47   82       1
    89   48   83       1
@<TRIPOS>SUBSTRUCTURE
     1 FAD1493     1 GROUP             4 A     FAD     0 **** FAD A1493
