@<TRIPOS>MOLECULE
5l3r_GCP_2_ligand
   47    49     1     0     0
SMALL
NO_CHARGES


@<TRIPOS>ATOM
     1 PG           3.6660    -9.3670    13.6830 P.3          1 GCP401   0.0000
     2 O1G          3.6150    -9.2980    12.1830 O.co2        1 GCP401   0.0000
     3 O2G          4.4660    -8.1660    14.1640 O.co2        1 GCP401  -1.0000
     4 O3G          4.2430   -10.6600    14.1490 O.co2        1 GCP401  -1.0000
     5 C3B          1.9670    -9.2040    14.4260 C.3          1 GCP401   0.0000
     6 PB           0.9500    -8.0830    13.3310 P.3          1 GCP401   0.0000
     7 O1B          0.9700    -8.5380    11.9100 O.co2        1 GCP401   0.0000
     8 O2B          1.4060    -6.6440    13.4130 O.co2        1 GCP401  -1.0000
     9 O3A         -0.5530    -8.1970    13.9080 O.3          1 GCP401   0.0000
    10 PA          -1.6840    -9.1940    13.3260 P.3          1 GCP401   0.0000
    11 O1A         -2.2650    -8.6480    12.0590 O.co2        1 GCP401   0.0000
    12 O2A         -1.0550   -10.5540    13.1740 O.co2        1 GCP401  -1.0000
    13 O5'         -2.7320    -9.1410    14.5720 O.3          1 GCP401   0.0000
    14 C5'         -2.2510    -9.4230    15.8650 C.3          1 GCP401   0.0000
    15 C4'         -3.5190    -9.6600    16.7580 C.3          1 GCP401   0.0000
    16 O4'         -4.1590    -8.5030    16.9020 O.3          1 GCP401   0.0000
    17 C3'         -4.4490   -10.6060    15.9550 C.3          1 GCP401   0.0000
    18 O3'         -5.0530   -11.4580    16.8230 O.3          1 GCP401   0.0000
    19 C2'         -5.4810    -9.6510    15.3160 C.3          1 GCP401   0.0000
    20 O2'         -6.7660   -10.3700    14.9810 O.3          1 GCP401   0.0000
    21 C1'         -5.6290    -8.7430    16.2500 C.3          1 GCP401   0.0000
    22 N9          -6.0670    -7.5060    15.6810 N.pl3        1 GCP401   0.0000
    23 C8          -5.5800    -6.8310    14.6420 C.2          1 GCP401   0.0000
    24 N7          -6.3220    -5.7070    14.4880 N.2          1 GCP401   1.0000
    25 C5          -7.2820    -5.7150    15.4370 C.2          1 GCP401   0.0000
    26 C6          -8.3290    -4.8370    15.7580 C.2          1 GCP401   0.0000
    27 O6          -8.5100    -3.8580    15.1460 O.2          1 GCP401   0.0000
    28 N1          -9.1340    -5.1260    16.7920 N.pl3        1 GCP401   0.0000
    29 C2          -8.9290    -6.2590    17.5280 C.2          1 GCP401   0.0000
    30 N2          -9.7960    -6.6090    18.6910 N.pl3        1 GCP401   0.0000
    31 N3          -7.9200    -7.1100    17.2220 N.2          1 GCP401   0.0000
    32 C4          -7.1110    -6.8300    16.1750 C.2          1 GCP401   0.0000
    33 H3B1         2.0355    -8.8096    15.3424 H            1 GCP401   0.0000
    34 H3B2         1.5350   -10.1041    14.4819 H            1 GCP401   0.0000
    35 H5'1        -1.7200    -8.6508    16.2140 H            1 GCP401   0.0000
    36 H5'2        -1.6780   -10.2424    15.8512 H            1 GCP401   0.0000
    37 H4'         -3.2735   -10.0543    17.6436 H            1 GCP401   0.0000
    38 H3'         -3.9383   -11.1057    15.2554 H            1 GCP401   0.0000
    39 H7          -4.3577   -11.9917    17.3044 H            1 GCP401   0.0000
    40 H2'         -5.0972    -9.2345    14.4918 H            1 GCP401   0.0000
    41 H9          -7.1621   -10.7514    15.8163 H            1 GCP401   0.0000
    42 H1'         -6.2746    -9.0573    16.9460 H            1 GCP401   0.0000
    43 H11         -4.8033    -7.1050    14.0748 H            1 GCP401   0.0000
    44 H12         -9.8866    -4.5101    17.0248 H            1 GCP401   0.0000
    45 H13         -9.6216    -7.4452    19.2109 H            1 GCP401   0.0000
    46 H14        -10.5514    -6.0073    18.9504 H            1 GCP401   0.0000
    47 H15         -6.1831    -4.9990    13.7956 H            1 GCP401   0.0000
@<TRIPOS>BOND
     1    1    2      ar
     2    1    3      ar
     3    1    4      ar
     4    1    5       1
     5    5    6       1
     6    6    7      ar
     7    6    8      ar
     8    6    9       1
     9    9   10       1
    10   10   11      ar
    11   10   12      ar
    12   10   13       1
    13   13   14       1
    14   14   15       1
    15   15   16       1
    16   15   17       1
    17   16   21       1
    18   17   18       1
    19   17   19       1
    20   19   20       1
    21   19   21       1
    22   21   22       1
    23   22   23       1
    24   22   32       1
    25   23   24       2
    26   24   25       1
    27   25   26       1
    28   25   32       2
    29   26   27       2
    30   26   28       1
    31   28   29       1
    32   29   30       1
    33   29   31       2
    34   31   32       1
    35   30   46       1
    36   30   45       1
    37    5   33       1
    38    5   34       1
    39   28   44       1
    40   23   43       1
    41   14   35       1
    42   14   36       1
    43   15   37       1
    44   17   38       1
    45   18   39       1
    46   19   40       1
    47   20   41       1
    48   21   42       1
    49   24   47       1
@<TRIPOS>SUBSTRUCTURE
     1 GCP401      1 GROUP             4 B     GCP     0 **** GCP B 401
