@<TRIPOS>MOLECULE
3a3b_RBF_1_ligand
   47    49     1     0     0
SMALL
NO_CHARGES


@<TRIPOS>ATOM
     1 N1         -15.9470    -2.5630    20.1080 N.2          1 RBF191   0.0000
     2 C2         -16.2200    -1.4100    20.7480 C.2          1 RBF191   0.0000
     3 O2         -15.3950    -0.4650    20.6470 O.2          1 RBF191   0.0000
     4 N3         -17.3240    -1.2700    21.4820 N.pl3        1 RBF191   0.0000
     5 C4         -18.2130    -2.2620    21.6110 C.2          1 RBF191   0.0000
     6 O4         -19.2550    -2.1090    22.2810 O.2          1 RBF191   0.0000
     7 C4A        -17.9600    -3.5660    20.9630 C.2          1 RBF191   0.0000
     8 N5         -18.8080    -4.6300    21.0710 N.2          1 RBF191   0.0000
     9 C5A        -18.5360    -5.8170    20.4200 C.ar         1 RBF191   0.0000
    10 C6         -19.3900    -6.9080    20.5460 C.ar         1 RBF191   0.0000
    11 C7         -19.1020    -8.1140    19.8930 C.ar         1 RBF191   0.0000
    12 C7M        -20.0170    -9.3080    20.0780 C.3          1 RBF191   0.0000
    13 C8         -17.8810    -8.2330    19.0710 C.ar         1 RBF191   0.0000
    14 C8M        -17.5180    -9.5510    18.3870 C.3          1 RBF191   0.0000
    15 C9         -17.0240    -7.1520    18.9530 C.ar         1 RBF191   0.0000
    16 C9A        -17.3030    -5.9370    19.6120 C.ar         1 RBF191   0.0000
    17 N10        -16.4210    -4.8180    19.5090 N.pl3        1 RBF191   0.0000
    18 C10        -16.7560    -3.6310    20.1610 C.2          1 RBF191   0.0000
    19 C1'        -15.1630    -4.8260    18.7160 C.3          1 RBF191   0.0000
    20 C2'        -15.3040    -4.0930    17.3830 C.3          1 RBF191   0.0000
    21 O2'        -16.3750    -4.6520    16.5990 O.3          1 RBF191   0.0000
    22 C3'        -13.9950    -4.2490    16.6260 C.3          1 RBF191   0.0000
    23 O3'        -13.0100    -3.7010    17.4580 O.3          1 RBF191   0.0000
    24 C4'        -13.9220    -3.4850    15.3290 C.3          1 RBF191   0.0000
    25 O4'        -14.8200    -4.0540    14.4180 O.3          1 RBF191   0.0000
    26 C5'        -12.5590    -3.6940    14.7140 C.3          1 RBF191   0.0000
    27 O5'        -12.4040    -2.7000    13.7320 O.3          1 RBF191   0.0000
    28 H1         -17.4922    -0.4014    21.9482 H            1 RBF191   0.0000
    29 H2         -20.2148    -6.8311    21.1062 H            1 RBF191   0.0000
    30 H7M1       -19.6689   -10.0802    19.5465 H            1 RBF191   0.0000
    31 H7M2       -20.0486    -9.5569    21.0460 H            1 RBF191   0.0000
    32 H7M3       -20.9372    -9.0747    19.7636 H            1 RBF191   0.0000
    33 H8M1       -16.6640    -9.4388    17.8790 H            1 RBF191   0.0000
    34 H8M2       -17.4035   -10.2647    19.0780 H            1 RBF191   0.0000
    35 H8M3       -18.2491    -9.8117    17.7565 H            1 RBF191   0.0000
    36 H9         -16.1985    -7.2337    18.3946 H            1 RBF191   0.0000
    37 H1'1       -14.9052    -5.7749    18.5340 H            1 RBF191   0.0000
    38 H1'2       -14.4443    -4.3821    19.2511 H            1 RBF191   0.0000
    39 H2'        -15.4814    -3.1232    17.5504 H            1 RBF191   0.0000
    40 H13        -17.2284    -4.1771    16.8139 H            1 RBF191   0.0000
    41 H3'        -13.8064    -5.2176    16.4640 H            1 RBF191   0.0000
    42 H15        -12.3334    -4.4029    17.6806 H            1 RBF191   0.0000
    43 H4'        -14.1126    -2.5133    15.4684 H            1 RBF191   0.0000
    44 H17        -15.2884    -4.8252    14.8491 H            1 RBF191   0.0000
    45 H5'1       -12.5039    -4.6016    14.2978 H            1 RBF191   0.0000
    46 H5'2       -11.8483    -3.6035    15.4116 H            1 RBF191   0.0000
    47 H5'        -12.2665    -3.1310    12.8402 H            1 RBF191   0.0000
@<TRIPOS>BOND
     1    1    2       1
     2    1   18       2
     3    2    3       2
     4    2    4       1
     5    4    5       1
     6    5    6       2
     7    5    7       1
     8    7    8       2
     9    7   18       1
    10    8    9       1
    11    9   10      ar
    12    9   16      ar
    13   10   11      ar
    14   11   12       1
    15   11   13      ar
    16   13   14       1
    17   13   15      ar
    18   15   16      ar
    19   16   17       1
    20   17   18       1
    21   17   19       1
    22   19   20       1
    23   20   21       1
    24   20   22       1
    25   22   23       1
    26   22   24       1
    27   24   25       1
    28   24   26       1
    29   26   27       1
    30    4   28       1
    31   10   29       1
    32   12   30       1
    33   12   31       1
    34   12   32       1
    35   14   33       1
    36   14   34       1
    37   14   35       1
    38   15   36       1
    39   19   37       1
    40   19   38       1
    41   20   39       1
    42   21   40       1
    43   22   41       1
    44   23   42       1
    45   24   43       1
    46   25   44       1
    47   26   45       1
    48   26   46       1
    49   27   47       1
@<TRIPOS>SUBSTRUCTURE
     1 RBF191      1 GROUP             4 A     RBF     0 **** RBF A 191
