@<TRIPOS>MOLECULE
1ye4_NAD_1_ligand
   70    74     1     0     0
SMALL
NO_CHARGES


@<TRIPOS>ATOM
     1 PA         114.1780    11.0870     7.4690 P.3          1 NAD800   0.0000
     2 O1A        113.1770    11.6690     8.2710 O.co2        1 NAD800   0.0000
     3 O2A        114.4090    11.3520     5.9960 O.co2        1 NAD800  -1.0000
     4 O5B        114.0640     9.4760     7.5460 O.3          1 NAD800   0.0000
     5 C5B        114.6330     8.8140     8.6790 C.3          1 NAD800   0.0000
     6 C4B        114.7530     7.2760     8.4640 C.3          1 NAD800   0.0000
     7 O4B        113.4790     6.5010     8.2350 O.3          1 NAD800   0.0000
     8 C3B        115.7450     6.7860     7.3640 C.3          1 NAD800   0.0000
     9 O3B        117.0890     6.7440     7.8320 O.3          1 NAD800   0.0000
    10 C2B        115.2010     5.4340     6.9520 C.3          1 NAD800   0.0000
    11 O2B        115.7880     4.3510     7.6600 O.3          1 NAD800   0.0000
    12 C1B        113.6840     5.4980     7.2450 C.3          1 NAD800   0.0000
    13 N9A        112.7910     5.7500     6.1060 N.pl3        1 NAD800   0.0000
    14 C8A        112.9160     6.5580     4.9990 C.2          1 NAD800   0.0000
    15 N7A        111.9290     6.4330     4.1180 N.2          1 NAD800   0.0000
    16 C5A        111.0940     5.4820     4.7040 C.ar         1 NAD800   0.0000
    17 C6A        109.8770     4.9210     4.2410 C.ar         1 NAD800   0.0000
    18 N6A        109.2260     5.2060     3.0940 N.pl3        1 NAD800   0.0000
    19 N1A        109.2580     3.9660     5.0650 N.ar         1 NAD800   0.0000
    20 C2A        109.8350     3.5820     6.2870 C.ar         1 NAD800   0.0000
    21 N3A        111.0300     4.1110     6.7620 N.ar         1 NAD800   0.0000
    22 C4A        111.6290     5.0550     5.9320 C.ar         1 NAD800   0.0000
    23 O3         115.5890    11.3320     8.2000 O.3          1 NAD800   0.0000
    24 PN         116.7310    12.4630     8.2760 P.3          1 NAD800   0.0000
    25 O1N        117.8950    12.0220     7.4730 O.co2        1 NAD800   0.0000
    26 O2N        116.9770    12.6770     9.7200 O.co2        1 NAD800  -1.0000
    27 O5D        116.1530    13.8020     7.6320 O.3          1 NAD800   0.0000
    28 C5D        115.9020    13.9000     6.2060 C.3          1 NAD800   0.0000
    29 C4D        116.9300    14.7570     5.4970 C.3          1 NAD800   0.0000
    30 O4D        116.8960    16.1640     5.8490 O.3          1 NAD800   0.0000
    31 C3D        118.4460    14.3470     5.5830 C.3          1 NAD800   0.0000
    32 O3D        118.8410    13.3840     4.6030 O.3          1 NAD800   0.0000
    33 C2D        119.2010    15.6550     5.4620 C.3          1 NAD800   0.0000
    34 O2D        119.5830    15.9510     4.1280 O.3          1 NAD800   0.0000
    35 C1D        118.2620    16.6830     5.9810 C.3          1 NAD800   0.0000
    36 N1N        118.5180    17.1570     7.3850 N.ar         1 NAD800   1.0000
    37 C2N        118.8410    18.5160     7.6300 C.ar         1 NAD800   0.0000
    38 C3N        119.1100    18.9140     8.9290 C.ar         1 NAD800   0.0000
    39 C7N        119.4650    20.3860     9.1920 C.2          1 NAD800   0.0000
    40 O7N        119.7140    20.6910    10.3520 O.2          1 NAD800   0.0000
    41 N7N        119.4980    21.2540     8.2070 N.am         1 NAD800   0.0000
    42 C4N        119.0700    17.9610    10.0430 C.ar         1 NAD800   0.0000
    43 C5N        118.7340    16.6050     9.7580 C.ar         1 NAD800   0.0000
    44 C6N        118.4540    16.1780     8.4310 C.ar         1 NAD800   0.0000
    45 H5B1       114.0528     8.9833     9.4757 H            1 NAD800   0.0000
    46 H5B2       115.5454     9.1879     8.8456 H            1 NAD800   0.0000
    47 H4B        115.1219     6.9215     9.3232 H            1 NAD800   0.0000
    48 H3B        115.6939     7.4073     6.5821 H            1 NAD800   0.0000
    49 H5         117.0942     6.5560     8.8142 H            1 NAD800   0.0000
    50 H2B        115.3437     5.3045     5.9707 H            1 NAD800   0.0000
    51 H7         116.0560     4.6563     8.5738 H            1 NAD800   0.0000
    52 H1B        113.4185     4.6214     7.6463 H            1 NAD800   0.0000
    53 H8A        113.6837     7.1854     4.8687 H            1 NAD800   0.0000
    54 H6A1       108.3684     4.7398     2.8767 H            1 NAD800   0.0000
    55 H6A2       109.6011     5.8834     2.4612 H            1 NAD800   0.0000
    56 H2A        109.3641     2.8958     6.8414 H            1 NAD800   0.0000
    57 H5D1       114.9971    14.3019     6.0660 H            1 NAD800   0.0000
    58 H5D2       115.9232    12.9811     5.8122 H            1 NAD800   0.0000
    59 H4D        116.6934    14.7154     4.5263 H            1 NAD800   0.0000
    60 H3D        118.6193    13.9644     6.4905 H            1 NAD800   0.0000
    61 H17        118.7109    12.4628     4.9696 H            1 NAD800   0.0000
    62 H2D        120.0149    15.6244     6.0422 H            1 NAD800   0.0000
    63 H19        119.6147    16.9426     4.0026 H            1 NAD800   0.0000
    64 H1D        118.3350    17.4801     5.3816 H            1 NAD800   0.0000
    65 H2N        118.8739    19.1749     6.8785 H            1 NAD800   0.0000
    66 H7N1       119.7303    22.2093     8.3900 H            1 NAD800   0.0000
    67 H7N2       119.2908    20.9596     7.2740 H            1 NAD800   0.0000
    68 H4N        119.2729    18.2543    10.9772 H            1 NAD800   0.0000
    69 H5N        118.6945    15.9418    10.5054 H            1 NAD800   0.0000
    70 H6N        118.2201    15.2260     8.2335 H            1 NAD800   0.0000
@<TRIPOS>BOND
     1    1    2      ar
     2    1    3      ar
     3    1    4       1
     4    1   23       1
     5    4    5       1
     6    5    6       1
     7    6    7       1
     8    6    8       1
     9    7   12       1
    10    8    9       1
    11    8   10       1
    12   10   11       1
    13   10   12       1
    14   12   13       1
    15   13   14       1
    16   13   22       1
    17   14   15       2
    18   15   16       1
    19   16   17      ar
    20   16   22      ar
    21   17   18       1
    22   17   19      ar
    23   19   20      ar
    24   20   21      ar
    25   21   22      ar
    26   23   24       1
    27   24   25      ar
    28   24   26      ar
    29   24   27       1
    30   27   28       1
    31   28   29       1
    32   29   30       1
    33   29   31       1
    34   30   35       1
    35   31   32       1
    36   31   33       1
    37   33   34       1
    38   33   35       1
    39   35   36       1
    40   36   37      ar
    41   36   44      ar
    42   37   38      ar
    43   38   39       1
    44   38   42      ar
    45   39   40       2
    46   39   41      am
    47   42   43      ar
    48   43   44      ar
    49   44   70       1
    50    5   45       1
    51    5   46       1
    52    6   47       1
    53    8   48       1
    54    9   49       1
    55   10   50       1
    56   11   51       1
    57   12   52       1
    58   14   53       1
    59   18   54       1
    60   18   55       1
    61   20   56       1
    62   43   69       1
    63   28   57       1
    64   28   58       1
    65   29   59       1
    66   31   60       1
    67   32   61       1
    68   33   62       1
    69   34   63       1
    70   35   64       1
    71   37   65       1
    72   41   66       1
    73   41   67       1
    74   42   68       1
@<TRIPOS>SUBSTRUCTURE
     1 NAD800      1 GROUP             4 A     NAD     0 **** NAD A 800
