@<TRIPOS>MOLECULE
4kvg_GTP_2_ligand
   44    46     1     0     0
SMALL
NO_CHARGES


@<TRIPOS>ATOM
     1 PG          -2.0980    25.2600     6.9500 P.3          1 GTP201   0.0000
     2 O1G         -3.1240    25.6750     7.9750 O.co2        1 GTP201   0.0000
     3 O2G         -2.6820    24.4310     5.8450 O.co2        1 GTP201  -1.0000
     4 O3G         -0.8510    24.6750     7.5640 O.co2        1 GTP201  -1.0000
     5 O3B         -1.5750    26.6470     6.3020 O.3          1 GTP201   0.0000
     6 PB          -2.5060    27.8150     5.6700 P.3          1 GTP201   0.0000
     7 O1B         -2.8200    27.4720     4.2360 O.co2        1 GTP201   0.0000
     8 O2B         -3.6550    28.1510     6.5940 O.co2        1 GTP201  -1.0000
     9 O3A         -1.5050    29.0700     5.6730 O.3          1 GTP201   0.0000
    10 PA          -1.6330    30.3400     6.6500 P.3          1 GTP201   0.0000
    11 O1A         -2.9230    31.0670     6.3590 O.co2        1 GTP201   0.0000
    12 O2A         -1.3320    29.9130     8.0680 O.co2        1 GTP201  -1.0000
    13 O5'         -0.4140    31.2630     6.1450 O.3          1 GTP201   0.0000
    14 C5'          0.9320    30.7820     6.2250 C.3          1 GTP201   0.0000
    15 C4'          1.9010    31.9500     6.3690 C.3          1 GTP201   0.0000
    16 O4'          1.8490    32.7420     5.1800 O.3          1 GTP201   0.0000
    17 C3'          1.5490    32.8600     7.5380 C.3          1 GTP201   0.0000
    18 O3'          2.7380    33.1600     8.2730 O.3          1 GTP201   0.0000
    19 C2'          0.9780    34.1190     6.9080 C.3          1 GTP201   0.0000
    20 O2'          1.3820    35.3030     7.6040 O.3          1 GTP201   0.0000
    21 C1'          1.5170    34.1000     5.4860 C.3          1 GTP201   0.0000
    22 N9           0.5220    34.5930     4.5010 N.pl3        1 GTP201   0.0000
    23 C8          -0.7210    34.1130     4.2940 C.2          1 GTP201   0.0000
    24 N7          -1.3540    34.7990     3.3060 N.2          1 GTP201   0.0000
    25 C5          -0.4980    35.7390     2.8570 C.2          1 GTP201   0.0000
    26 C6          -0.5150    36.8070     1.8240 C.2          1 GTP201   0.0000
    27 O6          -1.5220    36.9960     1.1070 O.2          1 GTP201   0.0000
    28 N1           0.5890    37.5600     1.6770 N.pl3        1 GTP201   0.0000
    29 C2           1.6950    37.3820     2.4310 C.2          1 GTP201   0.0000
    30 N2           2.7690    38.1830     2.2240 N.pl3        1 GTP201   0.0000
    31 N3           1.7810    36.4250     3.3930 N.2          1 GTP201   0.0000
    32 C4           0.7390    35.5930     3.6450 C.2          1 GTP201   0.0000
    33 H5'1         1.1506    30.2722     5.3929 H            1 GTP201   0.0000
    34 H5'2         1.0208    30.1795     7.0181 H            1 GTP201   0.0000
    35 H4'          2.8287    31.5974     6.4916 H            1 GTP201   0.0000
    36 H3'          0.8706    32.4248     8.1299 H            1 GTP201   0.0000
    37 H5           2.6527    34.0649     8.6900 H            1 GTP201   0.0000
    38 H2'         -0.0203    34.0633     6.8902 H            1 GTP201   0.0000
    39 H7           0.7166    35.5118     8.3207 H            1 GTP201   0.0000
    40 H1'          2.3418    34.6632     5.4356 H            1 GTP201   0.0000
    41 H9          -1.1245    33.3515     4.8013 H            1 GTP201   0.0000
    42 H10          0.5912    38.2796     0.9826 H            1 GTP201   0.0000
    43 H11          3.5953    38.0635     2.7743 H            1 GTP201   0.0000
    44 H12          2.7349    38.8933     1.5210 H            1 GTP201   0.0000
@<TRIPOS>BOND
     1    1    2      ar
     2    1    3      ar
     3    1    4      ar
     4    1    5       1
     5    5    6       1
     6    6    7      ar
     7    6    8      ar
     8    6    9       1
     9    9   10       1
    10   10   11      ar
    11   10   12      ar
    12   10   13       1
    13   13   14       1
    14   14   15       1
    15   15   16       1
    16   15   17       1
    17   16   21       1
    18   17   18       1
    19   17   19       1
    20   19   20       1
    21   19   21       1
    22   21   22       1
    23   22   23       1
    24   22   32       1
    25   23   24       2
    26   24   25       1
    27   25   26       1
    28   25   32       2
    29   26   27       2
    30   26   28       1
    31   28   29       1
    32   29   30       1
    33   29   31       2
    34   31   32       1
    35   30   44       1
    36   30   43       1
    37   28   42       1
    38   23   41       1
    39   14   33       1
    40   14   34       1
    41   15   35       1
    42   17   36       1
    43   18   37       1
    44   19   38       1
    45   20   39       1
    46   21   40       1
@<TRIPOS>SUBSTRUCTURE
     1 GTP201      1 GROUP             4 C     GTP     0 **** GTP C 201
