@<TRIPOS>MOLECULE
3sig_AR6_1_ligand
   57    60     1     0     0
SMALL
NO_CHARGES


@<TRIPOS>ATOM
     1 N1           9.3620    -6.3400   -10.9580 N.ar         1 AR6280   0.0000
     2 C2           8.3060    -5.5900   -11.2580 C.ar         1 AR6280   0.0000
     3 N3           8.1250    -4.8920   -12.4160 N.ar         1 AR6280   0.0000
     4 C4           9.1390    -5.0410   -13.2990 C.ar         1 AR6280   0.0000
     5 C5          10.3000    -5.8470   -13.0260 C.ar         1 AR6280   0.0000
     6 C6          10.3350    -6.4850   -11.8140 C.ar         1 AR6280   0.0000
     7 N6          11.4440    -7.2630   -11.4780 N.pl3        1 AR6280   0.0000
     8 N7          11.1230    -5.7670   -14.2050 N.2          1 AR6280   0.0000
     9 C8          10.5190    -4.9750   -15.0260 C.2          1 AR6280   0.0000
    10 N9           9.3290    -4.4910   -14.5690 N.pl3        1 AR6280   0.0000
    11 PA           8.9770    -7.1740   -18.8370 P.3          1 AR6280   0.0000
    12 PB           7.0200    -8.2660   -20.8000 P.3          1 AR6280   0.0000
    13 C1'          8.3280    -3.6130   -15.1690 C.3          1 AR6280   0.0000
    14 O1A          9.5400    -6.3200   -19.9160 O.co2        1 AR6280   0.0000
    15 O1B          5.8110    -9.1210   -20.4760 O.co2        1 AR6280   0.0000
    16 C1D         11.3630   -11.4090   -20.8400 C.3          1 AR6280   0.0000
    17 O1D         12.5510   -11.5660   -21.5640 O.3          1 AR6280   0.0000
    18 C2'          8.8840    -2.6650   -16.2100 C.3          1 AR6280   0.0000
    19 O2'          8.1930    -1.4480   -16.1640 O.3          1 AR6280   0.0000
    20 O2A          9.9150    -8.0950   -18.1000 O.co2        1 AR6280  -1.0000
    21 O2B          6.8000    -6.9590   -21.4840 O.co2        1 AR6280  -1.0000
    22 C2D         10.5700   -12.6450   -21.0090 C.3          1 AR6280   0.0000
    23 O2D         11.2290   -13.8500   -20.8280 O.3          1 AR6280   0.0000
    24 C3'          8.5760    -3.3780   -17.4760 C.3          1 AR6280   0.0000
    25 O3'          8.3910    -2.5110   -18.5470 O.3          1 AR6280   0.0000
    26 O3A          7.7340    -7.9900   -19.4010 O.3          1 AR6280   0.0000
    27 C3D          9.7070   -12.3860   -22.1690 C.3          1 AR6280   0.0000
    28 O3D         10.4700   -12.8150   -23.2660 O.3          1 AR6280   0.0000
    29 C4'          7.3220    -4.1510   -17.1860 C.3          1 AR6280   0.0000
    30 O4'          7.2870    -4.3260   -15.7870 O.3          1 AR6280   0.0000
    31 C4D          9.5270   -10.9100   -22.1180 C.3          1 AR6280   0.0000
    32 O4D         10.6170   -10.3490   -21.4020 O.3          1 AR6280   0.0000
    33 C5'          7.1860    -5.4890   -17.9000 C.3          1 AR6280   0.0000
    34 O5'          8.3190    -6.3050   -17.6500 O.3          1 AR6280   0.0000
    35 C5D          8.2030   -10.4740   -21.4920 C.3          1 AR6280   0.0000
    36 O5D          8.0850    -9.0720   -21.6430 O.3          1 AR6280   0.0000
    37 H1           7.5793    -5.5324   -10.5734 H            1 AR6280   0.0000
    38 H2          12.1919    -7.3763   -12.1320 H            1 AR6280   0.0000
    39 H3          11.4906    -7.7071   -10.5832 H            1 AR6280   0.0000
    40 H4          10.8926    -4.7363   -15.9224 H            1 AR6280   0.0000
    41 H1'          7.9277    -3.0617   -14.4370 H            1 AR6280   0.0000
    42 H1D         11.5543   -11.2373   -19.8736 H            1 AR6280   0.0000
    43 H7          13.2488   -11.9737   -20.9751 H            1 AR6280   0.0000
    44 H2'          9.8684    -2.5316   -16.0951 H            1 AR6280   0.0000
    45 H9           8.5653    -0.8270   -16.8538 H            1 AR6280   0.0000
    46 H2D          9.9329   -12.6149   -20.2388 H            1 AR6280   0.0000
    47 H11         10.5848   -14.5342   -20.4861 H            1 AR6280   0.0000
    48 H3'          9.3175    -4.0146   -17.6879 H            1 AR6280   0.0000
    49 H13          7.7481    -2.9164   -19.1969 H            1 AR6280   0.0000
    50 H3D          8.8358   -12.8727   -22.1046 H            1 AR6280   0.0000
    51 H15         11.0199   -12.0530   -23.6080 H            1 AR6280   0.0000
    52 H4'          6.5417    -3.5820   -17.4455 H            1 AR6280   0.0000
    53 H4D          9.5578   -10.5607   -23.0545 H            1 AR6280   0.0000
    54 H5'1         7.1061    -5.3299   -18.8840 H            1 AR6280   0.0000
    55 H5'2         6.3654    -5.9558   -17.5701 H            1 AR6280   0.0000
    56 H5D1         8.1927   -10.7122   -20.5208 H            1 AR6280   0.0000
    57 H5D2         7.4429   -10.9298   -21.9551 H            1 AR6280   0.0000
@<TRIPOS>BOND
     1    1    2      ar
     2    1    6      ar
     3    2    3      ar
     4    3    4      ar
     5    4    5      ar
     6    4   10       1
     7    5    6      ar
     8    5    8       1
     9    6    7       1
    10    8    9       2
    11    9   10       1
    12   10   13       1
    13   11   14      ar
    14   11   20      ar
    15   11   26       1
    16   11   34       1
    17   12   15      ar
    18   12   21      ar
    19   12   26       1
    20   12   36       1
    21   13   18       1
    22   13   30       1
    23   16   17       1
    24   16   22       1
    25   16   32       1
    26   18   19       1
    27   18   24       1
    28   22   23       1
    29   22   27       1
    30   24   25       1
    31   24   29       1
    32   27   28       1
    33   27   31       1
    34   29   30       1
    35   29   33       1
    36   31   32       1
    37   31   35       1
    38   33   34       1
    39   35   36       1
    40    2   37       1
    41    7   38       1
    42    7   39       1
    43    9   40       1
    44   13   41       1
    45   35   57       1
    46   35   56       1
    47   16   42       1
    48   17   43       1
    49   18   44       1
    50   19   45       1
    51   22   46       1
    52   23   47       1
    53   24   48       1
    54   25   49       1
    55   27   50       1
    56   28   51       1
    57   29   52       1
    58   31   53       1
    59   33   54       1
    60   33   55       1
@<TRIPOS>SUBSTRUCTURE
     1 AR6280      1 GROUP             4 A     AR6     0 **** AR6 A 280
