@<TRIPOS>MOLECULE
1kij_NOV_2_ligand
   80    83     1     0     0
SMALL
NO_CHARGES


@<TRIPOS>ATOM
     1 C1           6.2710    34.7940    31.1380 C.3          1 NOV444   0.0000
     2 O1           5.1380    35.4930    31.5820 O.3          1 NOV444   0.0000
     3 N1           5.9000    38.4800    27.7660 N.am         1 NOV444   0.0000
     4 C12          4.7750    38.3070    28.4810 C.2          1 NOV444   0.0000
     5 O4           4.0360    39.2490    28.5790 O.2          1 NOV444   0.0000
     6 O5           4.5950    37.0450    29.0540 O.3          1 NOV444   0.0000
     7 C27          3.9640    35.3340    30.8250 C.3          1 NOV444   0.0000
     8 C28          3.5190    36.5370    29.9420 C.3          1 NOV444   0.0000
     9 C29          2.3100    36.0600    29.1080 C.3          1 NOV444   0.0000
    10 O6           2.5930    35.0240    28.2400 O.3          1 NOV444   0.0000
    11 C30          1.2140    35.7130    30.0550 C.3          1 NOV444   0.0000
    12 O7           1.6030    34.6700    30.9380 O.3          1 NOV444   0.0000
    13 C31          2.8120    34.7950    31.6710 C.3          1 NOV444   0.0000
    14 C23          2.5600    35.6760    32.8750 C.3          1 NOV444   0.0000
    15 C26          3.2090    33.3990    32.0780 C.3          1 NOV444   0.0000
    16 O8           1.0530    36.9570    30.7170 O.3          1 NOV444   0.0000
    17 C3          -0.1080    37.2360    31.3220 C.ar         1 NOV444   0.0000
    18 C4          -0.3290    38.5860    31.5890 C.ar         1 NOV444   0.0000
    19 C2           0.6110    39.6780    31.1360 C.3          1 NOV444   0.0000
    20 C5          -1.4860    38.8850    32.3110 C.ar         1 NOV444   0.0000
    21 C9          -2.4460    37.9030    32.6790 C.ar         1 NOV444   0.0000
    22 C10         -2.2170    36.5690    32.3030 C.ar         1 NOV444   0.0000
    23 C11         -1.0520    36.2480    31.6670 C.ar         1 NOV444   0.0000
    24 O10         -1.6830    40.1740    32.6950 O.2          1 NOV444   0.0000
    25 C6          -2.8840    40.5530    33.2990 C.2          1 NOV444   0.0000
    26 O11         -3.0620    41.7990    33.5090 O.2          1 NOV444   0.0000
    27 C7          -3.8520    39.6140    33.6370 C.2          1 NOV444   0.0000
    28 C8          -3.5980    38.2870    33.3720 C.2          1 NOV444   0.0000
    29 O9          -4.5280    37.4100    33.8670 O.3          1 NOV444   0.0000
    30 N2          -5.0250    39.9440    34.2700 N.am         1 NOV444   0.0000
    31 C13         -5.1920    40.5330    35.4570 C.2          1 NOV444   0.0000
    32 O2          -6.1510    41.2710    35.6100 O.2          1 NOV444   0.0000
    33 C14         -4.2290    40.2990    36.5370 C.ar         1 NOV444   0.0000
    34 C15         -3.7830    39.0080    36.8960 C.ar         1 NOV444   0.0000
    35 C16         -2.8800    38.8080    37.9340 C.ar         1 NOV444   0.0000
    36 C17         -2.4380    39.9160    38.6720 C.ar         1 NOV444   0.0000
    37 O3          -1.6070    39.7370    39.7550 O.3          1 NOV444   0.0000
    38 C18         -2.8650    41.2090    38.3150 C.ar         1 NOV444   0.0000
    39 C19         -3.7630    41.4030    37.2330 C.ar         1 NOV444   0.0000
    40 C20         -2.4460    37.4130    38.2300 C.3          1 NOV444   0.0000
    41 C21         -1.0010    37.2290    37.8540 C.2          1 NOV444   0.0000
    42 C22         -0.4790    36.6530    36.7560 C.2          1 NOV444   0.0000
    43 C24          1.0100    36.4300    36.6710 C.3          1 NOV444   0.0000
    44 C25         -1.2890    36.2110    35.5700 C.3          1 NOV444   0.0000
    45 H1           7.0396    34.9822    31.7494 H            1 NOV444   0.0000
    46 H2           6.0782    33.8128    31.1372 H            1 NOV444   0.0000
    47 H3           6.5026    35.0890    30.2110 H            1 NOV444   0.0000
    48 H4           6.5448    37.7234    27.6575 H            1 NOV444   0.0000
    49 H5           6.0922    39.3653    27.3426 H            1 NOV444   0.0000
    50 H6           4.1724    34.6016    30.1768 H            1 NOV444   0.0000
    51 H7           3.2211    37.2803    30.5409 H            1 NOV444   0.0000
    52 H8           1.9986    36.8357    28.5590 H            1 NOV444   0.0000
    53 H9           3.2986    35.3141    27.5935 H            1 NOV444   0.0000
    54 H10          0.3819    35.4653    29.5587 H            1 NOV444   0.0000
    55 H11          1.8028    35.3010    33.4098 H            1 NOV444   0.0000
    56 H12          3.3835    35.7100    33.4414 H            1 NOV444   0.0000
    57 H13          2.3271    36.5993    32.5696 H            1 NOV444   0.0000
    58 H14          2.4849    32.9964    32.6380 H            1 NOV444   0.0000
    59 H15          3.3478    32.8402    31.2604 H            1 NOV444   0.0000
    60 H16          4.0577    33.4343    32.6057 H            1 NOV444   0.0000
    61 H17          0.2597    40.5653    31.4347 H            1 NOV444   0.0000
    62 H18          1.5153    39.5261    31.5349 H            1 NOV444   0.0000
    63 H19          0.6803    39.6656    30.1385 H            1 NOV444   0.0000
    64 H20         -2.8983    35.8636    32.4985 H            1 NOV444   0.0000
    65 H21         -0.8648    35.2920    31.4413 H            1 NOV444   0.0000
    66 H22         -5.8642    39.7130    33.7777 H            1 NOV444   0.0000
    67 H23         -4.1259    38.2165    36.3900 H            1 NOV444   0.0000
    68 H24         -1.2927    40.5278    40.2802 H            1 NOV444   0.0000
    69 H25         -2.5321    41.9994    38.8292 H            1 NOV444   0.0000
    70 H26         -4.0555    42.3242    36.9764 H            1 NOV444   0.0000
    71 H27         -3.0081    36.7736    37.7053 H            1 NOV444   0.0000
    72 H28         -2.5590    37.2320    39.2070 H            1 NOV444   0.0000
    73 H29         -0.3363    37.5841    38.5114 H            1 NOV444   0.0000
    74 H30          1.2327    35.9958    35.7982 H            1 NOV444   0.0000
    75 H31          1.4829    37.3087    36.7365 H            1 NOV444   0.0000
    76 H32          1.3017    35.8377    37.4220 H            1 NOV444   0.0000
    77 H33         -0.6824    35.8133    34.8816 H            1 NOV444   0.0000
    78 H34         -1.9583    35.5269    35.8598 H            1 NOV444   0.0000
    79 H35         -1.7653    36.9988    35.1794 H            1 NOV444   0.0000
    80 H36         -5.3306    37.7545    34.3540 H            1 NOV444   0.0000
@<TRIPOS>BOND
     1    1    2       1
     2    2    7       1
     3    3    4      am
     4    4    5       2
     5    4    6       1
     6    6    8       1
     7    7    8       1
     8    7   13       1
     9    8    9       1
    10    9   10       1
    11    9   11       1
    12   11   12       1
    13   11   16       1
    14   12   13       1
    15   13   14       1
    16   13   15       1
    17   16   17       1
    18   17   18      ar
    19   17   23      ar
    20   18   19       1
    21   18   20      ar
    22   20   21      ar
    23   20   24       1
    24   21   22      ar
    25   21   28       1
    26   22   23      ar
    27   24   25       1
    28   25   26       2
    29   25   27       1
    30   27   28       2
    31   27   30       1
    32   28   29       1
    33   30   31      am
    34   31   32       2
    35   31   33       1
    36   33   34      ar
    37   33   39      ar
    38   34   35      ar
    39   35   36      ar
    40   35   40       1
    41   36   37       1
    42   36   38      ar
    43   38   39      ar
    44   40   41       1
    45   41   42       2
    46   42   43       1
    47   42   44       1
    48    1   45       1
    49    1   46       1
    50    1   47       1
    51    3   48       1
    52    3   49       1
    53    7   50       1
    54    8   51       1
    55    9   52       1
    56   10   53       1
    57   11   54       1
    58   14   55       1
    59   14   56       1
    60   14   57       1
    61   15   58       1
    62   15   59       1
    63   15   60       1
    64   19   61       1
    65   19   62       1
    66   19   63       1
    67   22   64       1
    68   23   65       1
    69   44   79       1
    70   30   66       1
    71   34   67       1
    72   37   68       1
    73   38   69       1
    74   39   70       1
    75   40   71       1
    76   40   72       1
    77   41   73       1
    78   43   74       1
    79   43   75       1
    80   43   76       1
    81   44   77       1
    82   44   78       1
    83   29   80       1
@<TRIPOS>SUBSTRUCTURE
     1 NOV444      1 GROUP             4 B     NOV     0 **** NOV B 444
