@<TRIPOS>MOLECULE
3apf_BMW_1_ligand
   53    58     1     0     0
SMALL
NO_CHARGES


@<TRIPOS>ATOM
     1 C1          46.1840    17.4010    32.1770 C.ar         1 BMW1103   0.0000
     2 C2          47.0590    18.4770    32.0050 C.ar         1 BMW1103   0.0000
     3 N3          48.3540    18.5450    31.7040 N.2          1 BMW1103   0.0000
     4 C5          48.7190    19.8280    31.6720 C.2          1 BMW1103   0.0000
     5 N6          47.6560    20.5860    31.9530 N.pl3        1 BMW1103   0.0000
     6 C7          46.6200    19.7840    32.1680 C.ar         1 BMW1103   0.0000
     7 C8          45.2940    20.0310    32.4970 C.ar         1 BMW1103   0.0000
     8 C9          44.4120    18.9610    32.6540 C.ar         1 BMW1103   0.0000
     9 C10         44.8500    17.6400    32.5020 C.ar         1 BMW1103   0.0000
    10 N11         43.9740    16.6500    32.6500 N.pl3        1 BMW1103   0.0000
    11 C12         42.7390    16.8280    33.4350 C.3          1 BMW1103   0.0000
    12 C13         41.8560    15.6410    33.0670 C.3          1 BMW1103   0.0000
    13 C14         42.8070    14.7900    32.2340 C.ar         1 BMW1103   0.0000
    14 C15         44.0210    15.4560    32.0370 C.ar         1 BMW1103   0.0000
    15 N16         44.9680    14.8310    31.3090 N.ar         1 BMW1103   0.0000
    16 C17         44.7470    13.6060    30.7920 C.ar         1 BMW1103   0.0000
    17 N18         45.7020    12.9250    30.0500 N.pl3        1 BMW1103   0.0000
    18 C19         45.3460    11.6640    29.4100 C.3          1 BMW1103   0.0000
    19 C20         46.2790    11.3580    28.2330 C.3          1 BMW1103   0.0000
    20 O21         47.6240    11.7470    28.4100 O.3          1 BMW1103   0.0000
    21 C22         47.6120    13.1430    28.5110 C.3          1 BMW1103   0.0000
    22 C23         47.0860    13.3960    29.9290 C.3          1 BMW1103   0.0000
    23 N24         43.5880    12.9770    30.9830 N.ar         1 BMW1103   0.0000
    24 C25         42.6000    13.5230    31.6970 C.ar         1 BMW1103   0.0000
    25 C26         41.3940    12.8220    31.8290 C.ar         1 BMW1103   0.0000
    26 C27         40.9510    12.0580    30.7460 C.ar         1 BMW1103   0.0000
    27 C28         40.6080    12.8770    32.9800 C.ar         1 BMW1103   0.0000
    28 C29         39.4090    12.1660    33.0410 C.ar         1 BMW1103   0.0000
    29 C30         38.9850    11.3980    31.9610 C.ar         1 BMW1103   0.0000
    30 C31         39.7620    11.3350    30.8010 C.ar         1 BMW1103   0.0000
    31 O32         39.3630    10.5980    29.7110 O.3          1 BMW1103   0.0000
    32 H1          46.5137    16.4633    32.0673 H            1 BMW1103   0.0000
    33 H2          49.6381    20.1666    31.4706 H            1 BMW1103   0.0000
    34 H3          44.9729    20.9699    32.6207 H            1 BMW1103   0.0000
    35 H4          43.4541    19.1403    32.8781 H            1 BMW1103   0.0000
    36 H5          42.2899    17.6877    33.1918 H            1 BMW1103   0.0000
    37 H6          42.9423    16.8235    34.4141 H            1 BMW1103   0.0000
    38 H7          41.0624    15.9299    32.5316 H            1 BMW1103   0.0000
    39 H8          41.5476    15.1504    33.8820 H            1 BMW1103   0.0000
    40 H9          44.4058    11.7223    29.0745 H            1 BMW1103   0.0000
    41 H10         45.4151    10.9263    30.0816 H            1 BMW1103   0.0000
    42 H11         45.9243    11.8317    27.4269 H            1 BMW1103   0.0000
    43 H12         46.2617    10.3709    28.0741 H            1 BMW1103   0.0000
    44 H13         47.0034    13.5454    27.8271 H            1 BMW1103   0.0000
    45 H14         48.5326    13.5172    28.3994 H            1 BMW1103   0.0000
    46 H15         47.6596    12.9067    30.5859 H            1 BMW1103   0.0000
    47 H16         47.1190    14.3764    30.1231 H            1 BMW1103   0.0000
    48 H17         41.5011    12.0298    29.9113 H            1 BMW1103   0.0000
    49 H18         40.9039    13.4261    33.7616 H            1 BMW1103   0.0000
    50 H19         38.8492    12.2088    33.8686 H            1 BMW1103   0.0000
    51 H20         38.1246    10.8913    32.0148 H            1 BMW1103   0.0000
    52 H21         38.5102    10.0769    29.7448 H            1 BMW1103   0.0000
    53 H22         47.6426    21.5851    31.9943 H            1 BMW1103   0.0000
@<TRIPOS>BOND
     1    1    2      ar
     2    1    9      ar
     3    2    3       1
     4    2    6      ar
     5    3    4       2
     6    4    5       1
     7    5    6       1
     8    6    7      ar
     9    7    8      ar
    10    8    9      ar
    11    9   10       1
    12   10   11       1
    13   10   14       1
    14   11   12       1
    15   12   13       1
    16   13   14      ar
    17   13   24      ar
    18   14   15      ar
    19   15   16      ar
    20   16   17       1
    21   16   23      ar
    22   17   18       1
    23   17   22       1
    24   18   19       1
    25   19   20       1
    26   20   21       1
    27   21   22       1
    28   23   24      ar
    29   24   25       1
    30   25   26      ar
    31   25   27      ar
    32   26   30      ar
    33   27   28      ar
    34   28   29      ar
    35   29   30      ar
    36   30   31       1
    37    1   32       1
    38   31   52       1
    39    4   33       1
    40    7   34       1
    41    8   35       1
    42   11   36       1
    43   11   37       1
    44   12   38       1
    45   12   39       1
    46   18   40       1
    47   18   41       1
    48   19   42       1
    49   19   43       1
    50   21   44       1
    51   21   45       1
    52   22   46       1
    53   22   47       1
    54   26   48       1
    55   27   49       1
    56   28   50       1
    57   29   51       1
    58    5   53       1
@<TRIPOS>SUBSTRUCTURE
     1 BMW1103     1 GROUP             4 A     BMW     0 **** BMW A1103
