@<TRIPOS>MOLECULE
1kp2_ATP_1_ligand
   43    45     1     0     0
SMALL
NO_CHARGES


@<TRIPOS>ATOM
     1 PG          32.9600    17.1690    37.6660 P.3          1 ATP459   0.0000
     2 O1G         33.2100    17.3130    36.2110 O.co2        1 ATP459   0.0000
     3 O2G         31.5750    16.7710    38.0220 O.co2        1 ATP459  -1.0000
     4 O3G         34.0260    16.4380    38.3920 O.co2        1 ATP459  -1.0000
     5 PB          32.3450    20.0970    37.7370 P.3          1 ATP459   0.0000
     6 O1B         32.6350    20.2750    36.2770 O.co2        1 ATP459   0.0000
     7 O2B         32.7410    21.2000    38.6600 O.co2        1 ATP459  -1.0000
     8 O3B         33.0620    18.6880    38.2430 O.3          1 ATP459   0.0000
     9 PA          29.4510    20.3250    37.2490 P.3          1 ATP459   0.0000
    10 O1A         29.6550    20.5630    35.7950 O.co2        1 ATP459   0.0000
    11 O2A         28.8790    21.4200    38.0660 O.co2        1 ATP459  -1.0000
    12 O3A         30.8170    19.7910    37.9090 O.3          1 ATP459   0.0000
    13 O5'         28.5370    19.0560    37.4360 O.3          1 ATP459   0.0000
    14 C5'         28.7460    17.8220    36.7240 C.3          1 ATP459   0.0000
    15 C4'         27.4870    17.3980    36.0190 C.3          1 ATP459   0.0000
    16 O4'         26.4890    17.1680    37.0420 O.3          1 ATP459   0.0000
    17 C3'         26.8750    18.4310    35.1040 C.3          1 ATP459   0.0000
    18 O3'         27.5240    18.3080    33.8420 O.3          1 ATP459   0.0000
    19 C2'         25.4490    17.9540    35.0840 C.3          1 ATP459   0.0000
    20 O2'         25.2320    16.8320    34.2170 O.3          1 ATP459   0.0000
    21 C1'         25.1790    17.4530    36.5260 C.3          1 ATP459   0.0000
    22 N9          24.5070    18.4790    37.3940 N.pl3        1 ATP459   0.0000
    23 C8          25.0600    19.4550    38.2160 C.2          1 ATP459   0.0000
    24 N7          24.1950    20.2040    38.8520 N.2          1 ATP459   0.0000
    25 C5          22.9720    19.6840    38.4190 C.ar         1 ATP459   0.0000
    26 C6          21.6060    20.0220    38.7120 C.ar         1 ATP459   0.0000
    27 N6          21.3040    21.0120    39.5540 N.pl3        1 ATP459   0.0000
    28 N1          20.6070    19.3080    38.1090 N.ar         1 ATP459   0.0000
    29 C2          20.9140    18.3140    37.2670 C.ar         1 ATP459   0.0000
    30 N3          22.1470    17.8880    36.9040 N.ar         1 ATP459   0.0000
    31 C4          23.1490    18.6340    37.5300 C.ar         1 ATP459   0.0000
    32 H5'1        29.0153    17.1100    37.3724 H            1 ATP459   0.0000
    33 H5'2        29.4729    17.9508    36.0495 H            1 ATP459   0.0000
    34 H4'         27.6521    16.5523    35.5116 H            1 ATP459   0.0000
    35 H3'         26.9549    19.3553    35.4771 H            1 ATP459   0.0000
    36 H5          27.9726    19.1717    33.6123 H            1 ATP459   0.0000
    37 H2'         24.8303    18.7041    34.8504 H            1 ATP459   0.0000
    38 H7          24.2976    16.8608    33.8621 H            1 ATP459   0.0000
    39 H1'         24.6323    16.6161    36.5003 H            1 ATP459   0.0000
    40 H9          26.0478    19.5760    38.3142 H            1 ATP459   0.0000
    41 H10         20.3473    21.2318    39.7448 H            1 ATP459   0.0000
    42 H11         22.0344    21.5342    39.9943 H            1 ATP459   0.0000
    43 H12         20.1415    17.8286    36.8576 H            1 ATP459   0.0000
@<TRIPOS>BOND
     1    1    2      ar
     2    1    3      ar
     3    1    4      ar
     4    1    8       1
     5    5    6      ar
     6    5    7      ar
     7    5    8       1
     8    5   12       1
     9    9   10      ar
    10    9   11      ar
    11    9   12       1
    12    9   13       1
    13   13   14       1
    14   14   15       1
    15   15   16       1
    16   15   17       1
    17   16   21       1
    18   17   18       1
    19   17   19       1
    20   19   20       1
    21   19   21       1
    22   21   22       1
    23   22   23       1
    24   22   31       1
    25   23   24       2
    26   24   25       1
    27   25   26      ar
    28   25   31      ar
    29   26   27       1
    30   26   28      ar
    31   28   29      ar
    32   29   30      ar
    33   30   31      ar
    34   29   43       1
    35   27   42       1
    36   27   41       1
    37   23   40       1
    38   14   32       1
    39   14   33       1
    40   15   34       1
    41   17   35       1
    42   18   36       1
    43   19   37       1
    44   20   38       1
    45   21   39       1
@<TRIPOS>SUBSTRUCTURE
     1 ATP459      1 GROUP             4 A     ATP     0 **** ATP A 459
