@<TRIPOS>MOLECULE
3na0_2DC_1_ligand
   76    79     1     0     0
SMALL
NO_CHARGES


@<TRIPOS>ATOM
     1 C1         -36.9620    -9.1840    56.3260 C.3          1 2DC602   0.0000
     2 O1         -39.2690   -12.1190    56.8370 O.3          1 2DC602   0.0000
     3 C2         -37.8000   -10.4080    55.9690 C.3          1 2DC602   0.0000
     4 O2         -34.8960    -1.1490    57.4470 O.3          1 2DC602   0.0000
     5 C3         -38.5280   -10.9440    57.1930 C.3          1 2DC602   0.0000
     6 O3         -32.9170    -0.1740    58.6460 O.3          1 2DC602   0.0000
     7 C4         -39.4760    -9.8710    57.7220 C.3          1 2DC602   0.0000
     8 C5         -38.7370    -8.5640    57.9400 C.2          1 2DC602   0.0000
     9 C6         -38.9570    -7.9100    59.0990 C.2          1 2DC602   0.0000
    10 C7         -38.2620    -6.6350    59.5160 C.3          1 2DC602   0.0000
    11 C8         -37.5480    -5.9550    58.3470 C.3          1 2DC602   0.0000
    12 C9         -36.8690    -6.9700    57.4120 C.3          1 2DC602   0.0000
    13 C10        -37.8230    -8.0340    56.8560 C.3          1 2DC602   0.0000
    14 C11        -36.0760    -6.2650    56.2960 C.3          1 2DC602   0.0000
    15 C12        -35.0930    -5.2360    56.8630 C.3          1 2DC602   0.0000
    16 C13        -35.8080    -4.1980    57.7310 C.3          1 2DC602   0.0000
    17 C14        -36.4970    -4.9650    58.8390 C.3          1 2DC602   0.0000
    18 C15        -36.9290    -3.9060    59.8440 C.3          1 2DC602   0.0000
    19 C16        -35.7820    -2.9020    59.7940 C.3          1 2DC602   0.0000
    20 C17        -34.8920    -3.3450    58.6260 C.3          1 2DC602   0.0000
    21 C18        -36.7900    -3.3600    56.8930 C.3          1 2DC602   0.0000
    22 C19        -38.7270    -7.4590    55.7480 C.3          1 2DC602   0.0000
    23 C20        -34.0690    -2.1830    58.0200 C.3          1 2DC602   0.0000
    24 C21        -33.0900    -2.6630    56.9480 C.3          1 2DC602   0.0000
    25 C22        -33.3200    -1.4680    59.1440 C.3          1 2DC602   0.0000
    26 C23        -32.1380    -2.2710    59.6810 C.3          1 2DC602   0.0000
    27 C24        -31.5840    -1.6680    60.9650 C.3          1 2DC602   0.0000
    28 C25        -30.6620    -2.6350    61.7080 C.3          1 2DC602   0.0000
    29 C26        -30.2950    -2.0530    63.0670 C.3          1 2DC602   0.0000
    30 C27        -29.4070    -2.9310    60.8930 C.3          1 2DC602   0.0000
    31 H1         -36.4779    -8.8743    55.5076 H            1 2DC602   0.0000
    32 H2         -36.2984    -9.4408    57.0286 H            1 2DC602   0.0000
    33 H3         -38.6415   -12.8170    56.4919 H            1 2DC602   0.0000
    34 H4         -37.1999   -11.1212    55.6067 H            1 2DC602   0.0000
    35 H5         -38.4722   -10.1531    55.2739 H            1 2DC602   0.0000
    36 H6         -34.6853    -1.0546    56.4740 H            1 2DC602   0.0000
    37 H7         -37.8606   -11.1749    57.9010 H            1 2DC602   0.0000
    38 H8         -33.5773     0.1412    57.9643 H            1 2DC602   0.0000
    39 H9         -39.8660   -10.1766    58.5906 H            1 2DC602   0.0000
    40 H10        -40.2108    -9.7263    57.0593 H            1 2DC602   0.0000
    41 H11        -39.6300    -8.2978    59.7289 H            1 2DC602   0.0000
    42 H12        -37.5881    -6.8521    60.2222 H            1 2DC602   0.0000
    43 H13        -38.9430    -6.0042    59.8878 H            1 2DC602   0.0000
    44 H14        -38.2289    -5.4495    57.8170 H            1 2DC602   0.0000
    45 H15        -36.1969    -7.4586    57.9684 H            1 2DC602   0.0000
    46 H16        -36.7179    -5.7988    55.6872 H            1 2DC602   0.0000
    47 H17        -35.5645    -6.9512    55.7788 H            1 2DC602   0.0000
    48 H18        -34.6386    -4.7684    56.1049 H            1 2DC602   0.0000
    49 H19        -34.4106    -5.7103    57.4191 H            1 2DC602   0.0000
    50 H20        -35.7878    -5.5077    59.2890 H            1 2DC602   0.0000
    51 H21        -37.0256    -4.2967    60.7594 H            1 2DC602   0.0000
    52 H22        -37.7917    -3.4808    59.5703 H            1 2DC602   0.0000
    53 H23        -35.2666    -2.9187    60.6508 H            1 2DC602   0.0000
    54 H24        -36.1331    -1.9794    59.6342 H            1 2DC602   0.0000
    55 H25        -34.2240    -3.9786    59.0163 H            1 2DC602   0.0000
    56 H26        -37.2435    -2.6907    57.4815 H            1 2DC602   0.0000
    57 H27        -36.2892    -2.8834    56.1705 H            1 2DC602   0.0000
    58 H28        -37.4754    -3.9614    56.4825 H            1 2DC602   0.0000
    59 H29        -39.2768    -6.7115    56.1208 H            1 2DC602   0.0000
    60 H30        -38.1595    -7.1145    55.0001 H            1 2DC602   0.0000
    61 H31        -39.3311    -8.1779    55.4042 H            1 2DC602   0.0000
    62 H32        -32.5068    -3.3815    57.3269 H            1 2DC602   0.0000
    63 H33        -33.6007    -3.0249    56.1682 H            1 2DC602   0.0000
    64 H34        -32.5222    -1.8965    56.6478 H            1 2DC602   0.0000
    65 H35        -33.9612    -1.3222    59.8974 H            1 2DC602   0.0000
    66 H36        -31.4146    -2.2839    58.9906 H            1 2DC602   0.0000
    67 H37        -32.4391    -3.2065    59.8659 H            1 2DC602   0.0000
    68 H38        -32.3482    -1.4279    61.5636 H            1 2DC602   0.0000
    69 H39        -31.0677    -0.8427    60.7363 H            1 2DC602   0.0000
    70 H40        -31.1545    -3.4930    61.8537 H            1 2DC602   0.0000
    71 H41        -29.6921    -2.6881    63.5498 H            1 2DC602   0.0000
    72 H42        -29.8255    -1.1793    62.9397 H            1 2DC602   0.0000
    73 H43        -31.1265    -1.9095    63.6037 H            1 2DC602   0.0000
    74 H44        -28.8221    -3.5643    61.3998 H            1 2DC602   0.0000
    75 H45        -29.6663    -3.3431    60.0195 H            1 2DC602   0.0000
    76 H46        -28.9099    -2.0796    60.7254 H            1 2DC602   0.0000
@<TRIPOS>BOND
     1    1    3       1
     2    1   13       1
     3    2    5       1
     4    3    5       1
     5    4   23       1
     6    5    7       1
     7    6   25       1
     8    7    8       1
     9    8    9       2
    10    8   13       1
    11    9   10       1
    12   10   11       1
    13   11   12       1
    14   11   17       1
    15   12   13       1
    16   12   14       1
    17   13   22       1
    18   14   15       1
    19   15   16       1
    20   16   17       1
    21   16   20       1
    22   16   21       1
    23   17   18       1
    24   18   19       1
    25   19   20       1
    26   20   23       1
    27   23   24       1
    28   23   25       1
    29   25   26       1
    30   26   27       1
    31   27   28       1
    32   28   29       1
    33   28   30       1
    34    1   31       1
    35    1   32       1
    36    2   33       1
    37    3   34       1
    38    3   35       1
    39    4   36       1
    40    5   37       1
    41    6   38       1
    42    7   39       1
    43    7   40       1
    44    9   41       1
    45   10   42       1
    46   10   43       1
    47   11   44       1
    48   12   45       1
    49   14   46       1
    50   14   47       1
    51   15   48       1
    52   15   49       1
    53   17   50       1
    54   18   51       1
    55   18   52       1
    56   19   53       1
    57   19   54       1
    58   20   55       1
    59   21   56       1
    60   21   57       1
    61   21   58       1
    62   22   59       1
    63   22   60       1
    64   22   61       1
    65   24   62       1
    66   24   63       1
    67   24   64       1
    68   25   65       1
    69   26   66       1
    70   26   67       1
    71   27   68       1
    72   27   69       1
    73   28   70       1
    74   29   71       1
    75   29   72       1
    76   29   73       1
    77   30   74       1
    78   30   75       1
    79   30   76       1
@<TRIPOS>SUBSTRUCTURE
     1 2DC602      1 GROUP             4 A     2DC     0 **** 2DC A 602
