@<TRIPOS>MOLECULE
3m6i_NAD_1_ligand
   70    74     1     0     0
SMALL
NO_CHARGES


@<TRIPOS>ATOM
     1 PA          48.0300   -22.9110     9.9700 P.3          1 NAD501   0.0000
     2 O1A         48.3800   -24.3740     9.9230 O.co2        1 NAD501   0.0000
     3 O2A         46.7040   -22.4510    10.5200 O.co2        1 NAD501  -1.0000
     4 O5B         48.2070   -22.4500     8.4510 O.3          1 NAD501   0.0000
     5 C5B         48.9740   -23.2870     7.6000 C.3          1 NAD501   0.0000
     6 C4B         48.1630   -23.4260     6.3310 C.3          1 NAD501   0.0000
     7 O4B         49.0120   -23.9830     5.3290 O.3          1 NAD501   0.0000
     8 C3B         46.9940   -24.3890     6.4840 C.3          1 NAD501   0.0000
     9 O3B         45.7860   -23.7340     6.1080 O.3          1 NAD501   0.0000
    10 C2B         47.3080   -25.5010     5.5090 C.3          1 NAD501   0.0000
    11 O2B         46.1390   -26.0380     4.9090 O.3          1 NAD501   0.0000
    12 C1B         48.1910   -24.7770     4.5110 C.3          1 NAD501   0.0000
    13 N9A         49.0500   -25.6460     3.7010 N.pl3        1 NAD501   0.0000
    14 C8A         49.6380   -26.7780     4.0880 C.2          1 NAD501   0.0000
    15 N7A         50.3130   -27.2880     3.0370 N.2          1 NAD501   0.0000
    16 C5A         50.1480   -26.4520     1.9910 C.ar         1 NAD501   0.0000
    17 C6A         50.6090   -26.4450     0.6730 C.ar         1 NAD501   0.0000
    18 N6A         51.3970   -27.4460     0.2100 N.pl3        1 NAD501   0.0000
    19 N1A         50.2380   -25.4300    -0.1420 N.ar         1 NAD501   0.0000
    20 C2A         49.4460   -24.4360     0.3080 C.ar         1 NAD501   0.0000
    21 N3A         48.9960   -24.4140     1.5670 N.ar         1 NAD501   0.0000
    22 C4A         49.3340   -25.4130     2.4220 C.ar         1 NAD501   0.0000
    23 O3          49.1770   -22.0810    10.7080 O.3          1 NAD501   0.0000
    24 PN          49.1730   -20.4840    10.8160 P.3          1 NAD501   0.0000
    25 O1N         48.3820   -19.8810     9.6890 O.co2        1 NAD501   0.0000
    26 O2N         48.8610   -20.0550    12.2360 O.co2        1 NAD501  -1.0000
    27 O5D         50.7370   -20.1800    10.5730 O.3          1 NAD501   0.0000
    28 C5D         51.4580   -20.6090     9.4010 C.3          1 NAD501   0.0000
    29 C4D         52.9570   -20.7020     9.6960 C.3          1 NAD501   0.0000
    30 O4D         53.5020   -19.4360    10.0700 O.3          1 NAD501   0.0000
    31 C3D         53.2370   -21.6600    10.8600 C.3          1 NAD501   0.0000
    32 O3D         54.2490   -22.5910    10.4540 O.3          1 NAD501   0.0000
    33 C2D         53.6640   -20.7390    11.9960 C.3          1 NAD501   0.0000
    34 O2D         54.5540   -21.3470    12.9360 O.3          1 NAD501   0.0000
    35 C1D         54.3130   -19.6140    11.2160 C.3          1 NAD501   0.0000
    36 N1N         54.4050   -18.3470    11.9330 N.ar         1 NAD501   1.0000
    37 C2N         55.6370   -17.8310    11.9500 C.ar         1 NAD501   0.0000
    38 C3N         55.9330   -16.6300    12.5810 C.ar         1 NAD501   0.0000
    39 C7N         57.3630   -16.1450    12.4770 C.2          1 NAD501   0.0000
    40 O7N         57.7920   -15.2690    13.2320 O.2          1 NAD501   0.0000
    41 N7N         58.1310   -16.6590    11.4950 N.am         1 NAD501   0.0000
    42 C4N         54.8970   -15.9320    13.2210 C.ar         1 NAD501   0.0000
    43 C5N         53.6090   -16.4830    13.1710 C.ar         1 NAD501   0.0000
    44 C6N         53.3700   -17.7080    12.5230 C.ar         1 NAD501   0.0000
    45 H5B1        49.1149   -24.1815     8.0243 H            1 NAD501   0.0000
    46 H5B2        49.8604   -22.8677     7.4040 H            1 NAD501   0.0000
    47 H4B         47.8310   -22.5295     6.0378 H            1 NAD501   0.0000
    48 H3B         46.9367   -24.7378     7.4195 H            1 NAD501   0.0000
    49 H5          45.6241   -23.8687     5.1304 H            1 NAD501   0.0000
    50 H2B         47.8251   -26.2248     5.9659 H            1 NAD501   0.0000
    51 H7          45.9327   -25.5333     4.0707 H            1 NAD501   0.0000
    52 H1B         47.6335   -24.1963     3.9177 H            1 NAD501   0.0000
    53 H8A         49.5874   -27.1807     5.0019 H            1 NAD501   0.0000
    54 H6A1        51.7212   -27.4303    -0.7359 H            1 NAD501   0.0000
    55 H6A2        51.6541   -28.2001     0.8143 H            1 NAD501   0.0000
    56 H2A         49.1888   -23.6972    -0.3149 H            1 NAD501   0.0000
    57 H5D1        51.3083   -19.9505     8.6635 H            1 NAD501   0.0000
    58 H5D2        51.1220   -21.5076     9.1189 H            1 NAD501   0.0000
    59 H4D         53.4304   -21.0329     8.8797 H            1 NAD501   0.0000
    60 H3D         52.4015   -22.1491    11.1104 H            1 NAD501   0.0000
    61 H17         53.8178   -23.3920    10.0388 H            1 NAD501   0.0000
    62 H2D         52.8549   -20.3950    12.4725 H            1 NAD501   0.0000
    63 H19         55.4989   -21.1998    12.6437 H            1 NAD501   0.0000
    64 H1D         55.2284   -19.8974    10.9302 H            1 NAD501   0.0000
    65 H2N         56.3735   -18.3281    11.4913 H            1 NAD501   0.0000
    66 H7N1        59.0807   -16.3621    11.3958 H            1 NAD501   0.0000
    67 H7N2        57.7508   -17.3371    10.8660 H            1 NAD501   0.0000
    68 H4N         55.0719   -15.0701    13.6969 H            1 NAD501   0.0000
    69 H5N         52.8487   -15.9977    13.6026 H            1 NAD501   0.0000
    70 H6N         52.4502   -18.0997    12.4990 H            1 NAD501   0.0000
@<TRIPOS>BOND
     1    1    2      ar
     2    1    3      ar
     3    1    4       1
     4    1   23       1
     5    4    5       1
     6    5    6       1
     7    6    7       1
     8    6    8       1
     9    7   12       1
    10    8    9       1
    11    8   10       1
    12   10   11       1
    13   10   12       1
    14   12   13       1
    15   13   14       1
    16   13   22       1
    17   14   15       2
    18   15   16       1
    19   16   17      ar
    20   16   22      ar
    21   17   18       1
    22   17   19      ar
    23   19   20      ar
    24   20   21      ar
    25   21   22      ar
    26   23   24       1
    27   24   25      ar
    28   24   26      ar
    29   24   27       1
    30   27   28       1
    31   28   29       1
    32   29   30       1
    33   29   31       1
    34   30   35       1
    35   31   32       1
    36   31   33       1
    37   33   34       1
    38   33   35       1
    39   35   36       1
    40   36   37      ar
    41   36   44      ar
    42   37   38      ar
    43   38   39       1
    44   38   42      ar
    45   39   40       2
    46   39   41      am
    47   42   43      ar
    48   43   44      ar
    49   44   70       1
    50    5   45       1
    51    5   46       1
    52    6   47       1
    53    8   48       1
    54    9   49       1
    55   10   50       1
    56   11   51       1
    57   12   52       1
    58   14   53       1
    59   18   54       1
    60   18   55       1
    61   20   56       1
    62   43   69       1
    63   28   57       1
    64   28   58       1
    65   29   59       1
    66   31   60       1
    67   32   61       1
    68   33   62       1
    69   34   63       1
    70   35   64       1
    71   37   65       1
    72   41   66       1
    73   41   67       1
    74   42   68       1
@<TRIPOS>SUBSTRUCTURE
     1 NAD501      1 GROUP             4 A     NAD     0 **** NAD A 501
