@<TRIPOS>MOLECULE
1tow_CRZ_1_ligand
   33    35     1     0     0
SMALL
NO_CHARGES


@<TRIPOS>ATOM
     1 O19         17.4080     7.2290     2.0020 O.co2        1 CRZ501   0.0000
     2 C1          17.9280     6.4240     2.7610 C.2          1 CRZ501   0.0000
     3 O18         17.1920     5.4060     3.1960 O.co2        1 CRZ501  -1.0000
     4 C2          19.3710     6.5730     3.1920 C.3          1 CRZ501   0.0000
     5 C3          19.8380     5.4040     4.0810 C.3          1 CRZ501   0.0000
     6 C4          20.1330     4.1170     3.2890 C.3          1 CRZ501   0.0000
     7 N5          21.0330     4.3350     2.1460 N.pl3        1 CRZ501   0.0000
     8 C6          20.6150     4.5170     0.8490 C.ar         1 CRZ501   0.0000
     9 C17         19.3820     4.6100     0.2010 C.ar         1 CRZ501   0.0000
    10 C7          21.8270     4.6580     0.0110 C.ar         1 CRZ501   0.0000
    11 C14         21.7870     4.8620    -1.3620 C.ar         1 CRZ501   0.0000
    12 C15         20.5190     4.9520    -1.9530 C.ar         1 CRZ501   0.0000
    13 C16         19.3480     4.8220    -1.1880 C.ar         1 CRZ501   0.0000
    14 C8          22.9600     4.5250     0.9060 C.ar         1 CRZ501   0.0000
    15 C9          22.3980     4.3210     2.2560 C.ar         1 CRZ501   0.0000
    16 C10         23.3060     4.1740     3.3110 C.ar         1 CRZ501   0.0000
    17 C13         24.3290     4.5700     0.6410 C.ar         1 CRZ501   0.0000
    18 C12         25.1830     4.4050     1.7380 C.ar         1 CRZ501   0.0000
    19 C11         24.6770     4.2150     3.0320 C.ar         1 CRZ501   0.0000
    20 H1          19.4672     7.4259     3.7051 H            1 CRZ501   0.0000
    21 H2          19.9485     6.6077     2.3764 H            1 CRZ501   0.0000
    22 H3          19.1210     5.2078     4.7499 H            1 CRZ501   0.0000
    23 H4          20.6720     5.6814     4.5580 H            1 CRZ501   0.0000
    24 H5          19.2684     3.7486     2.9473 H            1 CRZ501   0.0000
    25 H6          20.5572     3.4541     3.9059 H            1 CRZ501   0.0000
    26 H7          18.5313     4.5266     0.7200 H            1 CRZ501   0.0000
    27 H8          22.6237     4.9410    -1.9039 H            1 CRZ501   0.0000
    28 H9          20.4467     5.1117    -2.9375 H            1 CRZ501   0.0000
    29 H10         18.4614     4.8823    -1.6466 H            1 CRZ501   0.0000
    30 H11         22.9810     4.0420     4.2475 H            1 CRZ501   0.0000
    31 H12         24.6817     4.7126    -0.2838 H            1 CRZ501   0.0000
    32 H13         26.1727     4.4230     1.5961 H            1 CRZ501   0.0000
    33 H14         25.3229     4.1041     3.7873 H            1 CRZ501   0.0000
@<TRIPOS>BOND
     1    1    2      ar
     2    2    3      ar
     3    2    4       1
     4    4    5       1
     5    5    6       1
     6    6    7       1
     7    7    8       1
     8    7   15       1
     9    8    9      ar
    10    8   10      ar
    11    9   13      ar
    12   10   11      ar
    13   10   14       1
    14   11   12      ar
    15   12   13      ar
    16   14   15      ar
    17   14   17      ar
    18   15   16      ar
    19   16   19      ar
    20   17   18      ar
    21   18   19      ar
    22   19   33       1
    23    4   20       1
    24    4   21       1
    25    5   22       1
    26    5   23       1
    27    6   24       1
    28    6   25       1
    29    9   26       1
    30   11   27       1
    31   12   28       1
    32   13   29       1
    33   16   30       1
    34   17   31       1
    35   18   32       1
@<TRIPOS>SUBSTRUCTURE
     1 CRZ501      1 GROUP             4 A     CRZ     0 **** CRZ A 501
