@<TRIPOS>MOLECULE
3nd1_SAH_2_ligand
   46    48     1     0     0
SMALL
NO_CHARGES


@<TRIPOS>ATOM
     1 N           55.0830    70.0320    29.2660 N.4          1 SAH300   1.0000
     2 CA          55.3030    69.9560    27.7870 C.3          1 SAH300   0.0000
     3 CB          56.0860    68.6870    27.4370 C.3          1 SAH300   0.0000
     4 CG          57.5260    68.7820    27.9350 C.3          1 SAH300   0.0000
     5 SD          58.4480    67.3390    27.5150 S.3          1 SAH300   0.0000
     6 C           53.9660    70.0030    27.0960 C.2          1 SAH300   0.0000
     7 O           52.9240    70.2580    27.7210 O.co2        1 SAH300   0.0000
     8 OXT         53.9010    69.8000    25.8800 O.co2        1 SAH300  -1.0000
     9 C5'         59.1590    67.7780    25.9500 C.3          1 SAH300   0.0000
    10 C4'         58.5300    66.9890    24.8050 C.3          1 SAH300   0.0000
    11 O4'         57.3520    67.6630    24.3690 O.3          1 SAH300   0.0000
    12 C3'         59.4010    66.9260    23.5590 C.3          1 SAH300   0.0000
    13 O3'         60.3110    65.8210    23.6040 O.3          1 SAH300   0.0000
    14 C2'         58.3980    66.7760    22.4340 C.3          1 SAH300   0.0000
    15 O2'         57.8460    65.4550    22.3600 O.3          1 SAH300   0.0000
    16 C1'         57.2620    67.6240    22.9410 C.3          1 SAH300   0.0000
    17 N9          57.3020    69.0260    22.4540 N.pl3        1 SAH300   0.0000
    18 C8          57.3260    70.1330    23.2250 C.2          1 SAH300   0.0000
    19 N7          57.2930    71.2600    22.4710 N.2          1 SAH300   0.0000
    20 C5          57.2350    70.8770    21.1840 C.ar         1 SAH300   0.0000
    21 C6          57.1650    71.5600    19.8780 C.ar         1 SAH300   0.0000
    22 N6          57.1570    72.9160    19.7850 N.pl3        1 SAH300   0.0000
    23 N1          57.1060    70.7810    18.7790 N.ar         1 SAH300   0.0000
    24 C2          57.1070    69.4320    18.8450 C.ar         1 SAH300   0.0000
    25 N3          57.1680    68.7470    19.9970 N.ar         1 SAH300   0.0000
    26 C4          57.2300    69.4060    21.1750 C.ar         1 SAH300   0.0000
    27 H1          55.8438    70.5221    29.6914 H            1 SAH300   0.0000
    28 H2          54.2286    70.5174    29.4514 H            1 SAH300   0.0000
    29 HA          55.8385    70.7510    27.5020 H            1 SAH300   0.0000
    30 HB1         56.0899    68.5679    26.4441 H            1 SAH300   0.0000
    31 HB2         55.6425    67.8998    27.8654 H            1 SAH300   0.0000
    32 HG1         57.5202    68.8864    28.9295 H            1 SAH300   0.0000
    33 HG2         57.9624    69.5796    27.5186 H            1 SAH300   0.0000
    34 H5'1        60.1403    67.5873    25.9746 H            1 SAH300   0.0000
    35 H5'2        59.0130    68.7542    25.7898 H            1 SAH300   0.0000
    36 H4'         58.3023    66.0645    25.1107 H            1 SAH300   0.0000
    37 H3'         59.9077    67.7816    23.4529 H            1 SAH300   0.0000
    38 H12         61.1653    66.1101    24.0360 H            1 SAH300   0.0000
    39 H2'         58.7541    67.0944    21.5555 H            1 SAH300   0.0000
    40 H14         58.0560    65.0555    21.4676 H            1 SAH300   0.0000
    41 H1'         56.3931    67.2062    22.6755 H            1 SAH300   0.0000
    42 H16         57.3633    70.1237    24.2243 H            1 SAH300   0.0000
    43 H17         57.1090    73.3554    18.8880 H            1 SAH300   0.0000
    44 H18         57.1991    73.4743    20.6136 H            1 SAH300   0.0000
    45 H19         57.0598    68.9162    17.9896 H            1 SAH300   0.0000
    46 H20         55.0297    69.1073    29.6430 H            1 SAH300   0.0000
@<TRIPOS>BOND
     1    1    2       1
     2    2    3       1
     3    2    6       1
     4    3    4       1
     5    4    5       1
     6    5    9       1
     7    6    7      ar
     8    6    8      ar
     9    9   10       1
    10   10   11       1
    11   10   12       1
    12   11   16       1
    13   12   13       1
    14   12   14       1
    15   14   15       1
    16   14   16       1
    17   16   17       1
    18   17   18       1
    19   17   26       1
    20   18   19       2
    21   19   20       1
    22   20   21      ar
    23   20   26      ar
    24   21   22       1
    25   21   23      ar
    26   23   24      ar
    27   24   25      ar
    28   25   26      ar
    29    1   27       1
    30    1   28       1
    31    2   29       1
    32    3   30       1
    33    3   31       1
    34    4   32       1
    35    4   33       1
    36    1   46       1
    37    9   34       1
    38    9   35       1
    39   10   36       1
    40   12   37       1
    41   13   38       1
    42   14   39       1
    43   15   40       1
    44   16   41       1
    45   18   42       1
    46   22   43       1
    47   22   44       1
    48   24   45       1
@<TRIPOS>SUBSTRUCTURE
     1 SAH300      1 GROUP             4 B     SAH     0 **** SAH B 300
