@<TRIPOS>MOLECULE
3qvi_K95_2_ligand
   93    97     1     0     0
SMALL
NO_CHARGES


@<TRIPOS>ATOM
     1 CBH         20.5380    18.6300    43.1490 C.2          1 K95329   0.0000
     2 CAX         21.3500    19.9500    43.0670 C.3          1 K95329   0.0000
     3 CBL         21.9510    20.2000    41.6890 C.ar         1 K95329   0.0000
     4 CAR         23.3220    20.0400    41.4970 C.ar         1 K95329   0.0000
     5 CAL         23.8650    20.2650    40.2200 C.ar         1 K95329   0.0000
     6 CAJ         23.0590    20.6650    39.1310 C.ar         1 K95329   0.0000
     7 CAM         21.6810    20.8410    39.3280 C.ar         1 K95329   0.0000
     8 CAS         21.1330    20.6070    40.6130 C.ar         1 K95329   0.0000
     9 OAD         20.9920    17.5550    42.7390 O.2          1 K95329   0.0000
    10 N           19.3360    18.7780    43.7170 N.am         1 K95329   0.0000
    11 CA          18.3970    17.6870    44.0240 C.3          1 K95329   0.0000
    12 CB          18.3580    17.6060    45.5900 C.3          1 K95329   0.0000
    13 SBF         19.9110    16.9040    46.2630 S.3          1 K95329   0.0000
    14 CAA         19.5110    15.7380    47.5590 C.3          1 K95329   0.0000
    15 C           16.9740    17.8990    43.4090 C.2          1 K95329   0.0000
    16 O           16.5730    19.0070    43.0740 O.2          1 K95329   0.0000
    17 CBK         12.5320    18.0020    43.2690 C.2          1 K95329   0.0000
    18 NBD         16.2110    16.8150    43.3240 N.am         1 K95329   0.0000
    19 OAG         11.5490    17.2570    43.2150 O.2          1 K95329   0.0000
    20 CBR         13.8760    17.5210    43.9050 C.3          1 K95329   0.0000
    21 CBM         13.2630    15.5050    41.3340 C.ar         1 K95329   0.0000
    22 CBB         14.3910    15.4260    42.3660 C.3          1 K95329   0.0000
    23 CAK         11.2280    15.7220    39.4170 C.ar         1 K95329   0.0000
    24 CBS         14.8290    16.8500    42.8250 C.3          1 K95329   0.0000
    25 OAI         13.6190    16.7030    45.0950 O.3          1 K95329   0.0000
    26 CAU         12.0220    14.9790    41.6210 C.ar         1 K95329   0.0000
    27 CAT         13.4690    16.1390    40.0980 C.ar         1 K95329   0.0000
    28 CAO         11.0140    15.1020    40.6580 C.ar         1 K95329   0.0000
    29 CAN         12.4740    16.2490    39.1350 C.ar         1 K95329   0.0000
    30 CBJ         13.4810    20.8910    44.2130 C.2          1 K95329   0.0000
    31 NBV         12.4010    19.2180    42.7350 N.am         1 K95329   0.0000
    32 OAF         12.4190    20.9830    44.8340 O.2          1 K95329   0.0000
    33 CBU         13.4760    20.2810    42.7790 C.3          1 K95329   0.0000
    34 CBW         13.2460    21.3140    41.6130 C.3          1 K95329   0.0000
    35 CAZ         11.0970    19.5620    42.1150 C.3          1 K95329   0.0000
    36 CAC         14.1020    20.9100    40.3890 C.3          1 K95329   0.0000
    37 CAB         13.5070    22.7920    41.9790 C.3          1 K95329   0.0000
    38 SBG         11.4490    21.1290    41.2950 S.3          1 K95329   0.0000
    39 NBE         14.6770    21.2140    44.7390 N.am         1 K95329   0.0000
    40 OAH         16.5190    23.0690    44.9720 O.3          1 K95329   0.0000
    41 CBT         14.8160    21.7600    46.1250 C.3          1 K95329   0.0000
    42 CBO         15.5300    20.7210    47.0390 C.ar         1 K95329   0.0000
    43 CAW         15.3150    19.3500    47.1820 C.ar         1 K95329   0.0000
    44 CAQ         16.1000    18.6180    48.0640 C.ar         1 K95329   0.0000
    45 CBP         15.7040    23.0210    46.1570 C.3          1 K95329   0.0000
    46 CBN         16.5390    21.3590    47.7860 C.ar         1 K95329   0.0000
    47 CAV         17.3260    20.6080    48.6610 C.ar         1 K95329   0.0000
    48 CAP         17.1040    19.2430    48.8050 C.ar         1 K95329   0.0000
    49 CBA         16.5690    22.8690    47.4410 C.3          1 K95329   0.0000
    50 HAX1        22.0930    19.9082    43.7350 H            1 K95329   0.0000
    51 HAX2        20.7422    20.7116    43.2917 H            1 K95329   0.0000
    52 HAR         23.9118    19.7687    42.2576 H            1 K95329   0.0000
    53 HAL         24.8469    20.1387    40.0789 H            1 K95329   0.0000
    54 HAJ         23.4656    20.8208    38.2308 H            1 K95329   0.0000
    55 HAM         21.0936    21.1278    38.5713 H            1 K95329   0.0000
    56 HAS         20.1518    20.7320    40.7602 H            1 K95329   0.0000
    57 H8          19.0517    19.7073    43.9527 H            1 K95329   0.0000
    58 HA          18.7742    16.8315    43.6692 H            1 K95329   0.0000
    59 HB1         17.5921    17.0257    45.8667 H            1 K95329   0.0000
    60 HB2         18.2298    18.5261    45.9602 H            1 K95329   0.0000
    61 HAA1        20.3546    15.3508    47.9310 H            1 K95329   0.0000
    62 HAA2        19.0103    16.2071    48.2865 H            1 K95329   0.0000
    63 HAA3        18.9444    15.0043    47.1840 H            1 K95329   0.0000
    64 HBD         16.5935    15.9371    43.6120 H            1 K95329   0.0000
    65 HBR         14.3469    18.3433    44.2245 H            1 K95329   0.0000
    66 HBB1        15.1752    14.9582    41.9582 H            1 K95329   0.0000
    67 HBB2        14.0715    14.9101    43.1608 H            1 K95329   0.0000
    68 HAK         10.4889    15.7815    38.7461 H            1 K95329   0.0000
    69 HBS         14.8206    17.4379    42.0161 H            1 K95329   0.0000
    70 HAI         14.4885    16.4044    45.4884 H            1 K95329   0.0000
    71 HAU         11.8466    14.5221    42.4931 H            1 K95329   0.0000
    72 HAT         14.3696    16.5275    39.9030 H            1 K95329   0.0000
    73 HAO         10.1067    14.7342    40.8618 H            1 K95329   0.0000
    74 HAN         12.6547    16.6981    38.2600 H            1 K95329   0.0000
    75 HBU         14.3586    19.8355    42.6287 H            1 K95329   0.0000
    76 HAZ1        10.3851    19.6701    42.8089 H            1 K95329   0.0000
    77 HAZ2        10.8163    18.8649    41.4553 H            1 K95329   0.0000
    78 HAC1        13.9557    21.5662    39.6487 H            1 K95329   0.0000
    79 HAC2        15.0687    20.9062    40.6449 H            1 K95329   0.0000
    80 HAC3        13.8348    19.9965    40.0823 H            1 K95329   0.0000
    81 HAB1        13.3357    23.3685    41.1801 H            1 K95329   0.0000
    82 HAB2        12.8969    23.0638    42.7232 H            1 K95329   0.0000
    83 HAB3        14.4574    22.9004    42.2706 H            1 K95329   0.0000
    84 HBE         15.4996    21.0848    44.1853 H            1 K95329   0.0000
    85 HAH         17.0992    22.2554    44.9333 H            1 K95329   0.0000
    86 HBT         13.9125    21.9731    46.4968 H            1 K95329   0.0000
    87 HAW         14.5988    18.8961    46.6518 H            1 K95329   0.0000
    88 HAQ         15.9445    17.6357    48.1687 H            1 K95329   0.0000
    89 HBP         15.1359    23.8417    46.2187 H            1 K95329   0.0000
    90 HAV         18.0516    21.0531    49.1858 H            1 K95329   0.0000
    91 HAP         17.6635    18.7094    49.4392 H            1 K95329   0.0000
    92 HBA1        16.1802    23.4060    48.1896 H            1 K95329   0.0000
    93 HBA2        17.5070    23.1690    47.2677 H            1 K95329   0.0000
@<TRIPOS>BOND
     1    1    2       1
     2    1    9       2
     3    1   10      am
     4    2    3       1
     5    3    4      ar
     6    3    8      ar
     7    4    5      ar
     8    5    6      ar
     9    6    7      ar
    10    7    8      ar
    11   10   11       1
    12   11   12       1
    13   11   15       1
    14   12   13       1
    15   13   14       1
    16   15   16       2
    17   15   18      am
    18   17   19       2
    19   17   20       1
    20   17   31      am
    21   18   24       1
    22   20   24       1
    23   20   25       1
    24   21   22       1
    25   21   26      ar
    26   21   27      ar
    27   22   24       1
    28   23   28      ar
    29   23   29      ar
    30   26   28      ar
    31   27   29      ar
    32   30   32       2
    33   30   33       1
    34   30   39      am
    35   31   33       1
    36   31   35       1
    37   33   34       1
    38   34   36       1
    39   34   37       1
    40   34   38       1
    41   35   38       1
    42   39   41       1
    43   40   45       1
    44   41   42       1
    45   41   45       1
    46   42   43      ar
    47   42   46      ar
    48   43   44      ar
    49   44   48      ar
    50   45   49       1
    51   46   47      ar
    52   46   49       1
    53   47   48      ar
    54    2   50       1
    55    2   51       1
    56    4   52       1
    57    5   53       1
    58    6   54       1
    59    7   55       1
    60    8   56       1
    61   10   57       1
    62   11   58       1
    63   12   59       1
    64   12   60       1
    65   14   61       1
    66   14   62       1
    67   14   63       1
    68   18   64       1
    69   20   65       1
    70   22   66       1
    71   22   67       1
    72   23   68       1
    73   24   69       1
    74   25   70       1
    75   26   71       1
    76   27   72       1
    77   28   73       1
    78   29   74       1
    79   33   75       1
    80   35   76       1
    81   35   77       1
    82   36   78       1
    83   36   79       1
    84   36   80       1
    85   37   81       1
    86   37   82       1
    87   37   83       1
    88   39   84       1
    89   40   85       1
    90   41   86       1
    91   43   87       1
    92   44   88       1
    93   45   89       1
    94   47   90       1
    95   48   91       1
    96   49   92       1
    97   49   93       1
@<TRIPOS>SUBSTRUCTURE
     1 K95329      1 GROUP             4 C     K95     0 **** K95 C 329
