@<TRIPOS>MOLECULE
2d1s_SLU_1_ligand
   58    63     1     0     0
SMALL
NO_CHARGES


@<TRIPOS>ATOM
     1 O39         17.3250    26.1770    11.4500 O.2          1 SLU2001   0.0000
     2 C16         16.2640    25.9810    10.8560 C.2          1 SLU2001   0.0000
     3 C14         16.0960    24.7100    10.1130 C.2          1 SLU2001   0.0000
     4 N15         17.1220    23.8800     9.8590 N.2          1 SLU2001   0.0000
     5 C13         14.8730    24.2820     9.6150 C.2          1 SLU2001   0.0000
     6 S12         15.0230    22.7950     8.8260 S.3          1 SLU2001   0.0000
     7 C11         16.6870    22.8350     9.1760 C.2          1 SLU2001   0.0000
     8 C8          17.6410    21.7650     8.7200 C.2          1 SLU2001   0.0000
     9 S9          19.3200    21.8660     9.0220 S.3          1 SLU2001   0.0000
    10 C4          19.4680    20.3330     8.3740 C.ar         1 SLU2001   0.0000
    11 C5          20.6350    19.5690     8.1890 C.ar         1 SLU2001   0.0000
    12 C6          20.5410    18.2770     7.6360 C.ar         1 SLU2001   0.0000
    13 O10         21.6700    17.5280     7.4510 O.3          1 SLU2001   0.0000
    14 C3          18.1650    19.7370     7.9920 C.ar         1 SLU2001   0.0000
    15 N7          17.1610    20.5970     8.2830 N.2          1 SLU2001   0.0000
    16 C2          18.1360    18.4590     7.4480 C.ar         1 SLU2001   0.0000
    17 C1          19.3130    17.7410     7.2650 C.ar         1 SLU2001   0.0000
    18 N40         15.1630    26.7140    10.9420 N.am         1 SLU2001   0.0000
    19 S17         15.0680    28.0750    11.7510 S.o2         1 SLU2001   0.0000
    20 O18         13.9830    28.8340    11.1710 O.2          1 SLU2001   0.0000
    21 O19         14.9450    27.8890    13.1410 O.2          1 SLU2001   0.0000
    22 O20         16.4160    28.9190    11.6020 O.3          1 SLU2001   0.0000
    23 C21         16.8620    29.1850    10.2720 C.3          1 SLU2001   0.0000
    24 C22         18.2020    29.8640    10.3760 C.3          1 SLU2001   0.0000
    25 C23         18.8060    30.1750     9.0180 C.3          1 SLU2001   0.0000
    26 O27         18.2180    31.3540     8.4460 O.3          1 SLU2001   0.0000
    27 C24         20.2780    30.3150     9.3770 C.3          1 SLU2001   0.0000
    28 O28         20.5220    31.6000     9.9730 O.3          1 SLU2001   0.0000
    29 C25         20.4520    29.2630    10.4630 C.3          1 SLU2001   0.0000
    30 O26         19.1600    29.0000    11.0000 O.3          1 SLU2001   0.0000
    31 N35         20.9690    27.9850     9.8960 N.pl3        1 SLU2001   0.0000
    32 C32         22.2440    27.8230     9.5880 C.ar         1 SLU2001   0.0000
    33 N31         23.3060    28.6340     9.6400 N.ar         1 SLU2001   0.0000
    34 C30         24.4860    28.1730     9.2330 C.ar         1 SLU2001   0.0000
    35 N29         24.6670    26.9290     8.7480 N.ar         1 SLU2001   0.0000
    36 C33         22.3620    26.4690     9.0960 C.ar         1 SLU2001   0.0000
    37 C34         23.6740    26.0260     8.6530 C.ar         1 SLU2001   0.0000
    38 N38         23.8740    24.7800     8.1750 N.pl3        1 SLU2001   0.0000
    39 N37         21.1540    25.9020     9.1210 N.2          1 SLU2001   0.0000
    40 C36         20.3180    26.8220     9.6290 C.2          1 SLU2001   0.0000
    41 H1          14.0154    24.7874     9.7106 H            1 SLU2001   0.0000
    42 H2          21.5261    19.9412     8.4487 H            1 SLU2001   0.0000
    43 H3          22.5629    17.8975     7.7084 H            1 SLU2001   0.0000
    44 H4          17.2612    18.0518     7.1857 H            1 SLU2001   0.0000
    45 H5          19.2755    16.8269     6.8611 H            1 SLU2001   0.0000
    46 H6          14.3438    26.3898    10.4689 H            1 SLU2001   0.0000
    47 H7          16.2104    29.7835     9.8059 H            1 SLU2001   0.0000
    48 H8          16.9509    28.3287     9.7633 H            1 SLU2001   0.0000
    49 H9          18.1125    30.7071    10.9063 H            1 SLU2001   0.0000
    50 H10         18.6781    29.3975     8.4022 H            1 SLU2001   0.0000
    51 H11         18.6334    31.5347     7.5545 H            1 SLU2001   0.0000
    52 H12         20.8737    30.1461     8.5917 H            1 SLU2001   0.0000
    53 H13         20.7521    32.2606     9.2584 H            1 SLU2001   0.0000
    54 H14         21.0644    29.5993    11.1784 H            1 SLU2001   0.0000
    55 H15         25.2784    28.7804     9.2899 H            1 SLU2001   0.0000
    56 H16         23.1101    24.1370     8.1199 H            1 SLU2001   0.0000
    57 H17         24.7861    24.4996     7.8759 H            1 SLU2001   0.0000
    58 H18         19.3427    26.6710     9.7900 H            1 SLU2001   0.0000
@<TRIPOS>BOND
     1    1    2       2
     2    2    3       1
     3    2   18      am
     4    3    4       1
     5    3    5       2
     6    4    7       2
     7    5    6       1
     8    6    7       1
     9    7    8       1
    10    8    9       1
    11    8   15       2
    12    9   10       1
    13   10   11      ar
    14   10   14      ar
    15   11   12      ar
    16   12   13       1
    17   12   17      ar
    18   14   15       1
    19   14   16      ar
    20   16   17      ar
    21   18   19       1
    22   19   20       2
    23   19   21       2
    24   19   22       1
    25   22   23       1
    26   23   24       1
    27   24   25       1
    28   24   30       1
    29   25   26       1
    30   25   27       1
    31   27   28       1
    32   27   29       1
    33   29   30       1
    34   29   31       1
    35   31   32       1
    36   31   40       1
    37   32   33      ar
    38   32   36      ar
    39   33   34      ar
    40   34   35      ar
    41   35   37      ar
    42   36   37      ar
    43   36   39       1
    44   37   38       1
    45   39   40       2
    46    5   41       1
    47   11   42       1
    48   13   43       1
    49   16   44       1
    50   17   45       1
    51   18   46       1
    52   23   47       1
    53   23   48       1
    54   24   49       1
    55   25   50       1
    56   26   51       1
    57   27   52       1
    58   28   53       1
    59   29   54       1
    60   34   55       1
    61   38   56       1
    62   38   57       1
    63   40   58       1
@<TRIPOS>SUBSTRUCTURE
     1 SLU2001     1 GROUP             4 A     SLU     0 **** SLU A2001
