@<TRIPOS>MOLECULE
2wle_COA_1_ligand
   80    82     1     0     0
SMALL
NO_CHARGES


@<TRIPOS>ATOM
     1 N1A         35.4010   -27.1870   -13.3060 N.ar         1 COA1215   0.0000
     2 C2A         36.4820   -27.4090   -12.4930 C.ar         1 COA1215   0.0000
     3 N3A         36.9280   -26.4020   -11.6780 N.ar         1 COA1215   0.0000
     4 C4A         36.3070   -25.2080   -11.6620 C.ar         1 COA1215   0.0000
     5 C5A         35.2120   -24.9680   -12.4680 C.ar         1 COA1215   0.0000
     6 C6A         34.7540   -25.9710   -13.3040 C.ar         1 COA1215   0.0000
     7 N6A         34.0490   -25.6360   -14.3790 N.pl3        1 COA1215   0.0000
     8 N7A         34.8070   -23.6970   -12.2450 N.2          1 COA1215   0.0000
     9 C8A         35.6210   -23.1340   -11.3250 C.2          1 COA1215   0.0000
    10 N9A         36.5590   -24.0630   -10.9610 N.pl3        1 COA1215   0.0000
    11 C1B         37.6750   -23.8870   -10.0220 C.3          1 COA1215   0.0000
    12 C2B         38.6190   -22.7570   -10.3990 C.3          1 COA1215   0.0000
    13 O2B         39.6910   -23.1550   -11.2180 O.3          1 COA1215   0.0000
    14 C3B         39.1180   -22.3280    -9.0430 C.3          1 COA1215   0.0000
    15 O3B         40.1320   -23.1970    -8.6050 O.3          1 COA1215   0.0000
    16 P3B         41.3890   -22.6280    -7.7680 P.3          1 COA1215   0.0000
    17 O7A         40.9070   -21.5570    -6.8130 O.co2        1 COA1215   0.0000
    18 O8A         42.4080   -22.0410    -8.7300 O.co2        1 COA1215  -1.0000
    19 O9A         41.9830   -23.7700    -6.9890 O.co2        1 COA1215  -1.0000
    20 C4B         37.9070   -22.5170    -8.1560 C.3          1 COA1215   0.0000
    21 O4B         37.1380   -23.5360    -8.7650 O.3          1 COA1215   0.0000
    22 C5B         37.1010   -21.2280    -8.0660 C.3          1 COA1215   0.0000
    23 O5B         36.9490   -20.6920    -9.3640 O.3          1 COA1215   0.0000
    24 P1A         36.7720   -19.0990    -9.5510 P.3          1 COA1215   0.0000
    25 O1A         36.7570   -18.7800   -11.0140 O.co2        1 COA1215   0.0000
    26 O2A         37.8660   -18.3680    -8.8030 O.co2        1 COA1215  -1.0000
    27 O3A         35.3160   -18.7820    -8.9140 O.3          1 COA1215   0.0000
    28 P2A         34.7440   -17.2780    -8.7360 P.3          1 COA1215   0.0000
    29 O4A         34.4220   -17.0190    -7.2780 O.co2        1 COA1215   0.0000
    30 O5A         35.6820   -16.2050    -9.2280 O.co2        1 COA1215  -1.0000
    31 O6A         33.3830   -17.3730    -9.6070 O.3          1 COA1215   0.0000
    32 CBP         31.4310   -18.5470   -10.4280 C.3          1 COA1215   0.0000
    33 CCP         32.5960   -18.5390    -9.4490 C.3          1 COA1215   0.0000
    34 CDP         30.6350   -17.2640   -10.2670 C.3          1 COA1215   0.0000
    35 CEP         30.5380   -19.7410   -10.1330 C.3          1 COA1215   0.0000
    36 CAP         31.9860   -18.6620   -11.8410 C.3          1 COA1215   0.0000
    37 OAP         32.7490   -19.8440   -11.9110 O.3          1 COA1215   0.0000
    38 C9P         30.9040   -18.7200   -12.8750 C.2          1 COA1215   0.0000
    39 O9P         30.2620   -19.9530   -13.1110 O.2          1 COA1215   0.0000
    40 N8P         30.6350   -17.5820   -13.5290 N.am         1 COA1215   0.0000
    41 C7P         29.5280   -17.4340   -14.4660 C.3          1 COA1215   0.0000
    42 C6P         28.2440   -17.0180   -13.7410 C.3          1 COA1215   0.0000
    43 C5P         27.1120   -16.7530   -14.7040 C.2          1 COA1215   0.0000
    44 O5P         26.5250   -17.6880   -15.2980 O.2          1 COA1215   0.0000
    45 N4P         26.7930   -15.4660   -14.8430 N.am         1 COA1215   0.0000
    46 C3P         25.6670   -15.0270   -15.6400 C.3          1 COA1215   0.0000
    47 C2P         24.3590   -15.6010   -15.1090 C.3          1 COA1215   0.0000
    48 S1P         23.8460   -14.7880   -13.5760 S.3          1 COA1215   0.0000
    49 H2A         36.9408   -28.2975   -12.4947 H            1 COA1215   0.0000
    50 H6A1        33.5678   -24.7599   -14.4083 H            1 COA1215   0.0000
    51 H6A2        33.9995   -26.2599   -15.1589 H            1 COA1215   0.0000
    52 H8A         35.5507   -22.2012   -10.9715 H            1 COA1215   0.0000
    53 H1B         38.1873   -24.7422    -9.9430 H            1 COA1215   0.0000
    54 H2B         38.1112   -22.0123   -10.8320 H            1 COA1215   0.0000
    55 H7          40.2345   -23.8469   -10.7428 H            1 COA1215   0.0000
    56 H3B         39.4256   -21.3765    -9.0481 H            1 COA1215   0.0000
    57 H4B         38.1941   -22.8051    -7.2424 H            1 COA1215   0.0000
    58 H5B1        37.5822   -20.5710    -7.4857 H            1 COA1215   0.0000
    59 H5B2        36.2011   -21.4214    -7.6752 H            1 COA1215   0.0000
    60 HCP1        32.2389   -18.5685    -8.5154 H            1 COA1215   0.0000
    61 HCP2        33.1667   -19.3436    -9.6132 H            1 COA1215   0.0000
    62 HDP1        29.8680   -17.2648   -10.9087 H            1 COA1215   0.0000
    63 HDP2        30.2869   -17.2029    -9.3315 H            1 COA1215   0.0000
    64 HDP3        31.2258   -16.4794   -10.4548 H            1 COA1215   0.0000
    65 HEP1        29.7708   -19.7500   -10.7744 H            1 COA1215   0.0000
    66 HEP2        31.0657   -20.5846   -10.2326 H            1 COA1215   0.0000
    67 HEP3        30.1899   -19.6740    -9.1979 H            1 COA1215   0.0000
    68 HAP         32.5772   -17.8773   -12.0271 H            1 COA1215   0.0000
    69 H21         33.1260   -19.9434   -12.8319 H            1 COA1215   0.0000
    70 H8P         31.2254   -16.7916   -13.3656 H            1 COA1215   0.0000
    71 H7P1        29.3734   -18.3066   -14.9294 H            1 COA1215   0.0000
    72 H7P2        29.7629   -16.7349   -15.1414 H            1 COA1215   0.0000
    73 H6P1        28.4241   -16.1853   -13.2173 H            1 COA1215   0.0000
    74 H6P2        27.9728   -17.7516   -13.1178 H            1 COA1215   0.0000
    75 H4P         27.3522   -14.7785   -14.3796 H            1 COA1215   0.0000
    76 H3P1        25.7972   -15.3308   -16.5838 H            1 COA1215   0.0000
    77 H3P2        25.6191   -14.0285   -15.6148 H            1 COA1215   0.0000
    78 H2P1        24.4814   -16.5777   -14.9327 H            1 COA1215   0.0000
    79 H2P2        23.6456   -15.4735   -15.7980 H            1 COA1215   0.0000
    80 H1P         24.5161   -14.0878   -13.3297 H            1 COA1215   0.0000
@<TRIPOS>BOND
     1    1    2      ar
     2    1    6      ar
     3    2    3      ar
     4    3    4      ar
     5    4    5      ar
     6    4   10       1
     7    5    6      ar
     8    5    8       1
     9    6    7       1
    10    8    9       2
    11    9   10       1
    12   10   11       1
    13   11   12       1
    14   11   21       1
    15   12   13       1
    16   12   14       1
    17   14   15       1
    18   14   20       1
    19   15   16       1
    20   16   17      ar
    21   16   18      ar
    22   16   19      ar
    23   20   21       1
    24   20   22       1
    25   22   23       1
    26   23   24       1
    27   24   25      ar
    28   24   26      ar
    29   24   27       1
    30   27   28       1
    31   28   29      ar
    32   28   30      ar
    33   28   31       1
    34   31   33       1
    35   32   33       1
    36   32   34       1
    37   32   35       1
    38   32   36       1
    39   36   37       1
    40   36   38       1
    41   38   39       2
    42   38   40      am
    43   40   41       1
    44   41   42       1
    45   42   43       1
    46   43   44       2
    47   43   45      am
    48   45   46       1
    49   46   47       1
    50   47   48       1
    51    2   49       1
    52    7   50       1
    53    7   51       1
    54    9   52       1
    55   11   53       1
    56   12   54       1
    57   13   55       1
    58   14   56       1
    59   48   80       1
    60   47   79       1
    61   20   57       1
    62   22   58       1
    63   22   59       1
    64   47   78       1
    65   46   77       1
    66   33   60       1
    67   33   61       1
    68   34   62       1
    69   34   63       1
    70   34   64       1
    71   35   65       1
    72   35   66       1
    73   35   67       1
    74   36   68       1
    75   37   69       1
    76   40   70       1
    77   41   71       1
    78   41   72       1
    79   42   73       1
    80   42   74       1
    81   45   75       1
    82   46   76       1
@<TRIPOS>SUBSTRUCTURE
     1 COA1215     1 GROUP             4 A     COA     0 **** COA A1215
