@<TRIPOS>MOLECULE
3qgz_ADN_1_ligand
   32    34     1     0     0
SMALL
NO_CHARGES


@<TRIPOS>ATOM
     1 O5'         10.7750     8.4490    59.4980 O.3          1 ADN127   0.0000
     2 C5'         10.6370     8.6850    58.0970 C.3          1 ADN127   0.0000
     3 C4'          9.3660     9.4540    57.9790 C.3          1 ADN127   0.0000
     4 O4'          9.3630    10.1510    56.7680 O.3          1 ADN127   0.0000
     5 C3'          8.0110     8.7330    57.9050 C.3          1 ADN127   0.0000
     6 O3'          7.2320     9.0930    59.1430 O.3          1 ADN127   0.0000
     7 C2'          7.4330     8.9500    56.5240 C.3          1 ADN127   0.0000
     8 O2'          6.0980     8.8190    56.4970 O.3          1 ADN127   0.0000
     9 C1'          8.0720    10.3050    56.2950 C.3          1 ADN127   0.0000
    10 N9           8.2610    10.4680    54.8220 N.pl3        1 ADN127   0.0000
    11 C8           8.7960     9.6310    53.8680 C.2          1 ADN127   0.0000
    12 N7           8.8090    10.2900    52.7380 N.2          1 ADN127   0.0000
    13 C5           8.2520    11.5270    52.8760 C.ar         1 ADN127   0.0000
    14 C6           7.9150    12.7130    52.0210 C.ar         1 ADN127   0.0000
    15 N6           8.1320    12.7660    50.6980 N.pl3        1 ADN127   0.0000
    16 N1           7.3330    13.7850    52.6520 N.ar         1 ADN127   0.0000
    17 C2           7.0020    13.7450    53.9560 C.ar         1 ADN127   0.0000
    18 N3           7.2760    12.7340    54.8890 N.ar         1 ADN127   0.0000
    19 C4           7.8670    11.6350    54.2820 C.ar         1 ADN127   0.0000
    20 H5'         11.2871     9.2006    59.9138 H            1 ADN127   0.0000
    21 H5'1        10.5769     7.8215    57.5962 H            1 ADN127   0.0000
    22 H5'2        11.4080     9.2188    57.7497 H            1 ADN127   0.0000
    23 H4'          9.3292    10.1186    58.7253 H            1 ADN127   0.0000
    24 H3'          8.2102     7.7555    57.9743 H            1 ADN127   0.0000
    25 H6           7.0974    10.0834    59.1759 H            1 ADN127   0.0000
    26 H2'          7.8382     8.2880    55.8935 H            1 ADN127   0.0000
    27 H8           5.6847     9.4907    57.1118 H            1 ADN127   0.0000
    28 H1'          7.5753    11.0605    56.7221 H            1 ADN127   0.0000
    29 H10          9.1150     8.6943    54.0122 H            1 ADN127   0.0000
    30 H11          7.8848    13.5869    50.1833 H            1 ADN127   0.0000
    31 H12          8.5409    11.9846    50.2267 H            1 ADN127   0.0000
    32 H13          6.4973    14.5353    54.3034 H            1 ADN127   0.0000
@<TRIPOS>BOND
     1    1    2       1
     2    2    3       1
     3    3    4       1
     4    3    5       1
     5    4    9       1
     6    5    6       1
     7    5    7       1
     8    7    8       1
     9    7    9       1
    10    9   10       1
    11   10   11       1
    12   10   19       1
    13   11   12       2
    14   12   13       1
    15   13   14      ar
    16   13   19      ar
    17   14   15       1
    18   14   16      ar
    19   16   17      ar
    20   17   18      ar
    21   18   19      ar
    22    1   20       1
    23    2   21       1
    24    2   22       1
    25    3   23       1
    26    5   24       1
    27    6   25       1
    28    7   26       1
    29    8   27       1
    30    9   28       1
    31   11   29       1
    32   15   30       1
    33   15   31       1
    34   17   32       1
@<TRIPOS>SUBSTRUCTURE
     1 ADN127      1 GROUP             4 A     ADN     0 **** ADN A 127
