@<TRIPOS>MOLECULE
3aba_FLI_1_ligand
  102   102     1     0     0
SMALL
NO_CHARGES


@<TRIPOS>ATOM
     1 C1           1.9400    42.5430    22.5140 C.2          1 FLI404   0.0000
     2 O1           1.0690    43.4240    22.3790 O.2          1 FLI404   0.0000
     3 C2           1.9570    41.6250    23.7430 C.3          1 FLI404   0.0000
     4 C3           2.0280    42.4260    25.0730 C.3          1 FLI404   0.0000
     5 C4           3.2410    43.4370    25.1120 C.3          1 FLI404   0.0000
     6 C5           3.2940    44.1820    26.4850 C.3          1 FLI404   0.0000
     7 C6           4.5070    45.1370    26.4930 C.3          1 FLI404   0.0000
     8 C7           4.5480    45.9140    27.8390 C.3          1 FLI404   0.0000
     9 C8           5.3730    47.2180    27.6030 C.3          1 FLI404   0.0000
    10 C9           5.3900    48.0660    28.9050 C.3          1 FLI404   0.0000
    11 C10          6.2770    49.3400    28.6700 C.3          1 FLI404   0.0000
    12 C11          6.1330    50.3140    29.9350 C.3          1 FLI404   0.0000
    13 C12          6.9760    51.6010    29.7550 C.3          1 FLI404   0.0000
    14 C13          6.2200    52.6600    28.9370 C.3          1 FLI404   0.0000
    15 C14          7.1640    53.8620    28.5750 C.3          1 FLI404   0.0000
    16 C15          8.4410    53.6060    27.6830 C.3          1 FLI404   0.0000
    17 C16          7.9280    52.9930    26.3640 C.2          1 FLI404   0.0000
    18 C17          7.9040    51.6010    26.2230 C.2          1 FLI404   0.0000
    19 C18          7.2540    50.9610    25.1330 C.2          1 FLI404   0.0000
    20 C19          7.2590    49.5800    24.9690 C.2          1 FLI404   0.0000
    21 C1P          0.7080    40.7400    23.6630 C.3          1 FLI404   0.0000
    22 C20          6.6340    48.9000    23.9030 C.2          1 FLI404   0.0000
    23 C21          6.6770    47.4750    23.8040 C.2          1 FLI404   0.0000
    24 C22          5.9580    46.8570    22.7570 C.2          1 FLI404   0.0000
    25 C23          5.9620    45.5100    22.4590 C.2          1 FLI404   0.0000
    26 C24          5.2300    45.0970    21.3010 C.2          1 FLI404   0.0000
    27 C25          5.0510    43.7270    21.0380 C.2          1 FLI404   0.0000
    28 C26          4.3200    43.2670    19.8820 C.3          1 FLI404   0.0000
    29 C27          2.8370    43.2720    20.3190 C.3          1 FLI404   0.0000
    30 C28          1.9130    42.5720    19.3160 C.3          1 FLI404   0.0000
    31 C29          7.3020    53.9790    25.2980 C.3          1 FLI404   0.0000
    32 C2P          0.5250    39.9790    22.2850 C.3          1 FLI404   0.0000
    33 O30          2.8570    42.3610    21.5060 O.3          1 FLI404   0.0000
    34 C3P         -0.7230    39.1320    22.1900 C.3          1 FLI404   0.0000
    35 C4P         -0.7180    38.4850    20.8040 C.3          1 FLI404   0.0000
    36 C5P         -1.9440    37.6070    20.4160 C.3          1 FLI404   0.0000
    37 C6P         -3.0180    38.4750    19.6890 C.3          1 FLI404   0.0000
    38 OA3          2.1770    41.4280    26.1190 O.3          1 FLI404   0.0000
    39 OA5          3.5200    43.1780    27.5510 O.3          1 FLI404   0.0000
    40 OA7          5.2390    45.0570    28.8230 O.3          1 FLI404   0.0000
    41 OA9          6.0010    47.2440    29.9010 O.3          1 FLI404   0.0000
    42 OB1          6.6100    49.6320    31.1310 O.3          1 FLI404   0.0000
    43 OB3          5.0090    53.0470    29.6200 O.3          1 FLI404   0.0000
    44 OB5          8.9690    54.9770    27.5480 O.3          1 FLI404   0.0000
    45 H1           2.7639    41.0370    23.6859 H            1 FLI404   0.0000
    46 H2           1.1724    42.9258    25.2078 H            1 FLI404   0.0000
    47 H3           3.1331    44.1078    24.3783 H            1 FLI404   0.0000
    48 H4           4.0938    42.9320    24.9792 H            1 FLI404   0.0000
    49 H5           2.4456    44.6859    26.6474 H            1 FLI404   0.0000
    50 H6           4.4252    45.7857    25.7363 H            1 FLI404   0.0000
    51 H7           5.3487    44.6073    26.3884 H            1 FLI404   0.0000
    52 H8           3.6227    46.1326    28.1490 H            1 FLI404   0.0000
    53 H9           4.9541    47.7482    26.8658 H            1 FLI404   0.0000
    54 H10          6.3101    46.9778    27.3499 H            1 FLI404   0.0000
    55 H11          4.4620    48.3228    29.1751 H            1 FLI404   0.0000
    56 H12          5.9710    49.8144    27.8446 H            1 FLI404   0.0000
    57 H13          7.2333    49.0680    28.5630 H            1 FLI404   0.0000
    58 H14          5.1716    50.5614    30.0554 H            1 FLI404   0.0000
    59 H15          7.8253    51.3694    29.2806 H            1 FLI404   0.0000
    60 H16          7.1897    51.9781    30.6562 H            1 FLI404   0.0000
    61 H17          5.9482    52.2291    28.0765 H            1 FLI404   0.0000
    62 H18          7.4856    54.2497    29.4389 H            1 FLI404   0.0000
    63 H19          6.6042    54.5371    28.0945 H            1 FLI404   0.0000
    64 H20          9.0947    53.0028    28.1399 H            1 FLI404   0.0000
    65 H21          8.3595    51.0376    26.9123 H            1 FLI404   0.0000
    66 H22          6.7756    51.5244    24.4594 H            1 FLI404   0.0000
    67 H23          7.7386    49.0314    25.6539 H            1 FLI404   0.0000
    68 H1P1        -0.0942    41.3190    23.8083 H            1 FLI404   0.0000
    69 H1P2         0.7626    40.0571    24.3915 H            1 FLI404   0.0000
    70 H26          6.1512    49.4255    23.2025 H            1 FLI404   0.0000
    71 H27          7.2018    46.9303    24.4581 H            1 FLI404   0.0000
    72 H28          5.3955    47.4491    22.1799 H            1 FLI404   0.0000
    73 H29          6.4549    44.8512    23.0274 H            1 FLI404   0.0000
    74 H30          4.8466    45.7808    20.6802 H            1 FLI404   0.0000
    75 H31          5.4401    43.0548    21.6679 H            1 FLI404   0.0000
    76 H32          4.6086    42.3438    19.6280 H            1 FLI404   0.0000
    77 H33          4.4606    43.8848    19.1084 H            1 FLI404   0.0000
    78 H34          2.5151    44.1895    20.5524 H            1 FLI404   0.0000
    79 H35          0.9711    42.6064    19.6502 H            1 FLI404   0.0000
    80 H36          1.9699    43.0346    18.4313 H            1 FLI404   0.0000
    81 H37          2.1952    41.6183    19.2122 H            1 FLI404   0.0000
    82 H38          7.0103    53.4598    24.4946 H            1 FLI404   0.0000
    83 H39          6.5130    54.4452    25.6981 H            1 FLI404   0.0000
    84 H40          7.9868    54.6555    25.0271 H            1 FLI404   0.0000
    85 H2P1         1.3166    39.3828    22.1513 H            1 FLI404   0.0000
    86 H2P2         0.4944    40.6612    21.5545 H            1 FLI404   0.0000
    87 H3P1        -1.5358    39.7042    22.2992 H            1 FLI404   0.0000
    88 H3P2        -0.7143    38.4265    22.8986 H            1 FLI404   0.0000
    89 H4P1         0.0952    37.9059    20.7467 H            1 FLI404   0.0000
    90 H4P2        -0.6513    39.2209    20.1302 H            1 FLI404   0.0000
    91 H5P1        -2.3430    37.2121    21.2436 H            1 FLI404   0.0000
    92 H5P2        -1.6450    36.8724    19.8069 H            1 FLI404   0.0000
    93 H6P1        -3.8001    37.9018    19.4446 H            1 FLI404   0.0000
    94 H6P2        -3.3200    39.2095    20.2966 H            1 FLI404   0.0000
    95 H6P3        -2.6221    38.8698    18.8599 H            1 FLI404   0.0000
    96 HA3          2.6955    41.8177    26.8801 H            1 FLI404   0.0000
    97 HA5          3.5569    43.6369    28.4387 H            1 FLI404   0.0000
    98 HA7          4.6239    44.8646    29.5876 H            1 FLI404   0.0000
    99 HA9          6.2481    46.3620    29.4997 H            1 FLI404   0.0000
   100 HB1          6.4575    48.6482    31.0369 H            1 FLI404   0.0000
   101 HB3          4.4228    52.2456    29.7390 H            1 FLI404   0.0000
   102 HB5          8.2835    55.5563    27.1070 H            1 FLI404   0.0000
@<TRIPOS>BOND
     1    1    2       2
     2    1    3       1
     3    1   33       1
     4    3    4       1
     5    3   21       1
     6    4    5       1
     7    4   38       1
     8    5    6       1
     9    6    7       1
    10    6   39       1
    11    7    8       1
    12    8    9       1
    13    8   40       1
    14    9   10       1
    15   10   11       1
    16   10   41       1
    17   11   12       1
    18   12   13       1
    19   12   42       1
    20   13   14       1
    21   14   15       1
    22   14   43       1
    23   15   16       1
    24   16   17       1
    25   16   44       1
    26   17   18       2
    27   17   31       1
    28   18   19       1
    29   19   20       2
    30   20   22       1
    31   21   32       1
    32   22   23       2
    33   23   24       1
    34   24   25       2
    35   25   26       1
    36   26   27       2
    37   27   28       1
    38   28   29       1
    39   29   30       1
    40   29   33       1
    41   32   34       1
    42   34   35       1
    43   35   36       1
    44   36   37       1
    45    3   45       1
    46    4   46       1
    47    5   47       1
    48    5   48       1
    49    6   49       1
    50    7   50       1
    51    7   51       1
    52    8   52       1
    53    9   53       1
    54    9   54       1
    55   10   55       1
    56   11   56       1
    57   11   57       1
    58   12   58       1
    59   13   59       1
    60   13   60       1
    61   14   61       1
    62   15   62       1
    63   15   63       1
    64   16   64       1
    65   18   65       1
    66   19   66       1
    67   20   67       1
    68   21   68       1
    69   21   69       1
    70   22   70       1
    71   23   71       1
    72   24   72       1
    73   25   73       1
    74   26   74       1
    75   27   75       1
    76   28   76       1
    77   28   77       1
    78   29   78       1
    79   30   79       1
    80   30   80       1
    81   30   81       1
    82   31   82       1
    83   31   83       1
    84   31   84       1
    85   32   85       1
    86   32   86       1
    87   34   87       1
    88   34   88       1
    89   35   89       1
    90   35   90       1
    91   36   91       1
    92   36   92       1
    93   37   93       1
    94   37   94       1
    95   37   95       1
    96   38   96       1
    97   39   97       1
    98   40   98       1
    99   41   99       1
   100   42  100       1
   101   43  101       1
   102   44  102       1
@<TRIPOS>SUBSTRUCTURE
     1 FLI404      1 GROUP             4 A     FLI     0 **** FLI A 404
