@<TRIPOS>MOLECULE
./coach420/2wva/ligand.pdb
 51 53 0 0 0
SMALL
GASTEIGER

@<TRIPOS>ATOM
      1  O23       18.3930   32.2590   -7.4120 O.2   600  TPU600     -0.2221
      2  P2        17.8200   31.0660   -8.3900 P.3   600  TPU600      0.5373
      3  O22       18.5800   29.6430   -8.0630 O.3   600  TPU600     -0.1143
      4  O21       18.1790   31.3990   -9.7600 O.3   600  TPU600     -0.1143
      5  O11       16.1880   30.9720   -8.1590 O.3   600  TPU600     -0.2261
      6  P1        15.1590   30.1370   -9.1360 P.3   600  TPU600      0.2230
      7  O12       14.8140   31.0610  -10.4350 O.2   600  TPU600     -0.5169
      8  O13       13.8920   29.9420   -8.4230 O.3   600  TPU600     -0.4370
      9  O5G       15.7810   28.6960   -9.6000 O.3   600  TPU600     -0.3134
     10  C5B       15.1970   27.5070   -9.1770 C.3   600  TPU600      0.1555
     11  C5A       15.7110   26.2270   -9.8290 C.3   600  TPU600      0.0814
     12  C5        15.5520   24.9520   -9.0180 C.ar  600  TPU600      0.0978
     13  C4        14.9930   23.8110   -9.4530 C.ar  600  TPU600      0.0732
     14  C4A       14.4530   23.6050  -10.8590 C.3   600  TPU600      0.0531
     15  N1        15.9420   24.7620   -7.6770 N.ar  600  TPU600     -0.1334
     16  N2        15.6090   23.5160   -7.3350 N.ar  600  TPU600     -0.0642
     17  N3        15.0110   22.8930   -8.4260 N.ar  600  TPU600     -0.2314
     18  C35       14.5310   21.5130   -8.4690 C.3   600  TPU600      0.1595
     19  C5'       13.0130   21.4620   -8.2670 C.ar  600  TPU600      0.0561
     20  C6'       12.1840   21.1910   -9.2820 C.ar  600  TPU600      0.1008
     21  N1'       10.8490   21.1700   -9.0690 N.ar  600  TPU600     -0.2293
     22  C2'       10.3290   21.4320   -7.7980 C.ar  600  TPU600      0.1411
     23  C2A        8.8130   21.4160   -7.5940 C.3   600  TPU600      0.0737
     24  N3'       11.1820   21.7110   -6.7360 N.ar  600  TPU600     -0.2130
     25  C4'       12.4770   21.7350   -6.9350 C.ar  600  TPU600      0.1703
     26  N4'       13.4240   21.9970   -5.8620 N.pl3 600  TPU600     -0.1074
     27  P2       -17.3400   27.8490  -16.7000 P.3   600  TPU600      0.5458
     28  O22      -18.5540   26.7500  -16.7110 O.2   600  TPU600     -0.2269
     29  O21      -17.6080   28.8200  -15.6360 O.2   600  TPU600     -0.2269
     30  O11      -15.9170   27.0650  -16.4290 O.3   600  TPU600     -0.2307
     31  P1       -14.7340   27.6870  -15.4560 P.3   600  TPU600      0.2222
     32  O12      -14.8210   29.3210  -15.3140 O.3   600  TPU600     -0.4370
     33  O13      -13.4200   27.3410  -15.9740 O.2   600  TPU600     -0.5170
     34  O5G      -14.8180   27.0480  -13.9480 O.3   600  TPU600     -0.3134
     35  C5B      -15.1890   25.7290  -13.7130 C.3   600  TPU600      0.1555
     36  C5A      -15.4760   25.4170  -12.2520 C.3   600  TPU600      0.0814
     37  C5       -15.3020   23.9700  -11.8500 C.ar  600  TPU600      0.0978
     38  C4       -14.7160   23.5320  -10.7150 C.ar  600  TPU600      0.0732
     39  C4A      -14.1420   24.3990   -9.6000 C.3   600  TPU600      0.0531
     40  N1       -15.7130   22.8660  -12.6280 N.ar  600  TPU600     -0.1334
     41  N2       -15.3760   21.7810  -11.9410 N.ar  600  TPU600     -0.0642
     42  N3       -14.7440   22.1710  -10.7470 N.ar  600  TPU600     -0.2314
     43  C35      -14.2470   21.2850   -9.7160 C.3   600  TPU600      0.1595
     44  C5'      -12.7480   20.9970   -9.8660 C.ar  600  TPU600      0.0561
     45  C6'      -11.9050   21.5730   -9.0020 C.ar  600  TPU600      0.1008
     46  N1'      -10.5690   21.3260   -9.0690 N.ar  600  TPU600     -0.2293
     47  C2'      -10.0480   20.4520  -10.0430 C.ar  600  TPU600      0.1411
     48  C2A       -8.5410   20.2050  -10.0960 C.3   600  TPU600      0.0737
     49  N3'      -10.9260   19.8430  -10.9460 N.ar  600  TPU600     -0.2130
     50  C4'      -12.2200   20.0800  -10.8830 C.ar  600  TPU600      0.1703
     51  N4'      -13.1160   19.4320  -11.8270 N.pl3 600  TPU600     -0.1074
@<TRIPOS>BOND
     1     1     2    2
     2     2     4    1
     3     2     5    1
     4     2     3    1
     5     5     6    1
     6     6     7    2
     7     6     9    1
     8     6     8    1
     9     9    10    1
    10    10    11    1
    11    11    12    1
    12    12    13   ar
    13    12    15   ar
    14    13    14    1
    15    13    17   ar
    16    15    16   ar
    17    16    17   ar
    18    17    18    1
    19    18    19    1
    20    19    20   ar
    21    19    25   ar
    22    20    21   ar
    23    21    22   ar
    24    22    23    1
    25    22    24   ar
    26    24    25   ar
    27    25    26    1
    28    27    28    2
    29    27    30    1
    30    27    29    2
    31    30    31    1
    32    31    33    2
    33    31    32    1
    34    31    34    1
    35    34    35    1
    36    35    36    1
    37    36    37    1
    38    37    40   ar
    39    37    38   ar
    40    38    42   ar
    41    38    39    1
    42    40    41   ar
    43    41    42   ar
    44    42    43    1
    45    43    44    1
    46    44    50   ar
    47    44    45   ar
    48    45    46   ar
    49    46    47   ar
    50    47    49   ar
    51    47    48    1
    52    49    50   ar
    53    50    51    1
