@<TRIPOS>MOLECULE
1gc5_ADP_1_ligand
   39    41     1     0     0
SMALL
NO_CHARGES


@<TRIPOS>ATOM
     1 PB           9.6090    63.7610    38.4510 P.3          1 ADP470   0.0000
     2 O1B          9.4010    62.2970    38.1990 O.co2        1 ADP470   0.0000
     3 O2B          9.6590    64.1400    40.0360 O.co2        1 ADP470  -1.0000
     4 O3B         10.8690    64.2480    37.7920 O.co2        1 ADP470  -1.0000
     5 PA           7.8480    66.0110    37.9610 P.3          1 ADP470   0.0000
     6 O1A          6.6110    66.1030    37.1700 O.co2        1 ADP470   0.0000
     7 O2A          7.6360    66.4510    39.3530 O.co2        1 ADP470  -1.0000
     8 O3A          8.3370    64.5100    37.9290 O.3          1 ADP470   0.0000
     9 O5'          9.0700    66.7990    37.2940 O.3          1 ADP470   0.0000
    10 C5'          9.4870    66.5730    35.9280 C.3          1 ADP470   0.0000
    11 C4'          9.5540    67.9680    35.3340 C.3          1 ADP470   0.0000
    12 O4'         10.8340    68.1980    34.7390 O.3          1 ADP470   0.0000
    13 C3'          8.5030    68.2410    34.2750 C.3          1 ADP470   0.0000
    14 O3'          7.3800    68.9700    34.7820 O.3          1 ADP470   0.0000
    15 C2'          9.2050    69.0470    33.2040 C.3          1 ADP470   0.0000
    16 O2'          8.9270    70.4590    33.2850 O.3          1 ADP470   0.0000
    17 C1'         10.6740    68.6940    33.3930 C.3          1 ADP470   0.0000
    18 N9          11.1950    67.7370    32.3450 N.pl3        1 ADP470   0.0000
    19 C8          10.9710    66.4120    32.2760 C.2          1 ADP470   0.0000
    20 N7          11.5980    65.9150    31.2030 N.2          1 ADP470   0.0000
    21 C5          12.2160    66.8960    30.5860 C.ar         1 ADP470   0.0000
    22 C6          13.0240    67.0200    29.4340 C.ar         1 ADP470   0.0000
    23 N6          13.3070    65.9410    28.6810 N.pl3        1 ADP470   0.0000
    24 N1          13.5200    68.2540    29.0660 N.ar         1 ADP470   0.0000
    25 C2          13.2630    69.3640    29.7970 C.ar         1 ADP470   0.0000
    26 N3          12.4830    69.2510    30.9000 N.ar         1 ADP470   0.0000
    27 C4          11.9580    68.0720    31.3240 C.ar         1 ADP470   0.0000
    28 H5'1         8.8198    66.0099    35.4404 H            1 ADP470   0.0000
    29 H5'2        10.3828    66.1296    35.8978 H            1 ADP470   0.0000
    30 H4'          9.4304    68.6289    36.0743 H            1 ADP470   0.0000
    31 H3'          8.1891    67.3745    33.8869 H            1 ADP470   0.0000
    32 H5           6.9887    69.5298    34.0516 H            1 ADP470   0.0000
    33 H2'          8.9093    68.7142    32.3086 H            1 ADP470   0.0000
    34 H7           9.6042    70.8988    33.8749 H            1 ADP470   0.0000
    35 H1'         11.2007    69.5408    33.3180 H            1 ADP470   0.0000
    36 H9          10.4230    65.8826    32.9236 H            1 ADP470   0.0000
    37 H10         13.8797    66.0358    27.8667 H            1 ADP470   0.0000
    38 H11         12.9446    65.0445    28.9358 H            1 ADP470   0.0000
    39 H12         13.6411    70.2500    29.5286 H            1 ADP470   0.0000
@<TRIPOS>BOND
     1    1    2      ar
     2    1    3      ar
     3    1    4      ar
     4    1    8       1
     5    5    6      ar
     6    5    7      ar
     7    5    8       1
     8    5    9       1
     9    9   10       1
    10   10   11       1
    11   11   12       1
    12   11   13       1
    13   12   17       1
    14   13   14       1
    15   13   15       1
    16   15   16       1
    17   15   17       1
    18   17   18       1
    19   18   19       1
    20   18   27       1
    21   19   20       2
    22   20   21       1
    23   21   22      ar
    24   21   27      ar
    25   22   23       1
    26   22   24      ar
    27   24   25      ar
    28   25   26      ar
    29   26   27      ar
    30   25   39       1
    31   23   38       1
    32   23   37       1
    33   10   28       1
    34   10   29       1
    35   11   30       1
    36   13   31       1
    37   14   32       1
    38   15   33       1
    39   16   34       1
    40   17   35       1
    41   19   36       1
@<TRIPOS>SUBSTRUCTURE
     1 ADP470      1 GROUP             4 A     ADP     0 **** ADP A 470
