@<TRIPOS>MOLECULE
3ufg_ATP_1_ligand
   43    45     1     0     0
SMALL
NO_CHARGES


@<TRIPOS>ATOM
     1 PG          25.7320    28.9340     5.1650 P.3          1 ATP288   0.0000
     2 O1G         24.7890    29.9700     5.7310 O.co2        1 ATP288   0.0000
     3 O2G         25.2290    28.2310     3.9230 O.co2        1 ATP288  -1.0000
     4 O3G         26.3330    28.0160     6.2080 O.co2        1 ATP288  -1.0000
     5 PB          27.9930    30.5790     5.5790 P.3          1 ATP288   0.0000
     6 O1B         27.5100    32.0020     5.7320 O.co2        1 ATP288   0.0000
     7 O2B         28.1990    29.7310     6.8130 O.co2        1 ATP288  -1.0000
     8 O3B         26.9800    29.7910     4.5990 O.3          1 ATP288   0.0000
     9 PA          30.7830    30.5210     5.4390 P.3          1 ATP288   0.0000
    10 O1A         30.6260    29.6900     6.6930 O.co2        1 ATP288   0.0000
    11 O2A         31.3880    31.9030     5.5430 O.co2        1 ATP288  -1.0000
    12 O3A         29.3530    30.5950     4.7000 O.3          1 ATP288   0.0000
    13 O5'         31.6350    29.6470     4.3990 O.3          1 ATP288   0.0000
    14 C5'         31.6320    28.2180     4.4610 C.3          1 ATP288   0.0000
    15 C4'         32.9540    27.7000     3.9040 C.3          1 ATP288   0.0000
    16 O4'         33.3010    28.4290     2.7240 O.3          1 ATP288   0.0000
    17 C3'         34.0810    27.8930     4.9090 C.3          1 ATP288   0.0000
    18 O3'         34.5870    26.6100     5.2940 O.3          1 ATP288   0.0000
    19 C2'         35.1520    28.7100     4.2070 C.3          1 ATP288   0.0000
    20 O2'         36.3540    27.9490     4.0850 O.3          1 ATP288   0.0000
    21 C1'         34.6200    28.9710     2.8130 C.3          1 ATP288   0.0000
    22 N9          34.5750    30.4260     2.5230 N.pl3        1 ATP288   0.0000
    23 C8          33.7700    31.3420     3.0910 C.2          1 ATP288   0.0000
    24 N7          33.9920    32.5810     2.5780 N.2          1 ATP288   0.0000
    25 C5          34.9630    32.4610     1.6500 C.ar         1 ATP288   0.0000
    26 C6          35.6850    33.3640     0.7150 C.ar         1 ATP288   0.0000
    27 N6          35.4320    34.6980     0.6390 N.pl3        1 ATP288   0.0000
    28 N1          36.6310    32.8020    -0.0630 N.ar         1 ATP288   0.0000
    29 C2          36.9210    31.4880    -0.0300 C.ar         1 ATP288   0.0000
    30 N3          36.3020    30.6150     0.7710 N.ar         1 ATP288   0.0000
    31 C4          35.3400    31.0370     1.6250 C.ar         1 ATP288   0.0000
    32 H5'1        30.8740    27.8594     3.9162 H            1 ATP288   0.0000
    33 H5'2        31.5286    27.9229     5.4109 H            1 ATP288   0.0000
    34 H4'         32.8659    26.7287     3.6830 H            1 ATP288   0.0000
    35 H3'         33.7448    28.3849     5.7121 H            1 ATP288   0.0000
    36 H5          34.9333    26.1323     4.4866 H            1 ATP288   0.0000
    37 H2'         35.3207    29.5685     4.6912 H            1 ATP288   0.0000
    38 H7          36.6812    27.6945     4.9950 H            1 ATP288   0.0000
    39 H1'         35.2094    28.5184     2.1439 H            1 ATP288   0.0000
    40 H9          33.0948    31.1376     3.7998 H            1 ATP288   0.0000
    41 H10         35.9423    35.2678    -0.0051 H            1 ATP288   0.0000
    42 H11         34.7356    35.1092     1.2272 H            1 ATP288   0.0000
    43 H12         37.6382    31.1465    -0.6375 H            1 ATP288   0.0000
@<TRIPOS>BOND
     1    1    2      ar
     2    1    3      ar
     3    1    4      ar
     4    1    8       1
     5    5    6      ar
     6    5    7      ar
     7    5    8       1
     8    5   12       1
     9    9   10      ar
    10    9   11      ar
    11    9   12       1
    12    9   13       1
    13   13   14       1
    14   14   15       1
    15   15   16       1
    16   15   17       1
    17   16   21       1
    18   17   18       1
    19   17   19       1
    20   19   20       1
    21   19   21       1
    22   21   22       1
    23   22   23       1
    24   22   31       1
    25   23   24       2
    26   24   25       1
    27   25   26      ar
    28   25   31      ar
    29   26   27       1
    30   26   28      ar
    31   28   29      ar
    32   29   30      ar
    33   30   31      ar
    34   29   43       1
    35   27   42       1
    36   27   41       1
    37   23   40       1
    38   14   32       1
    39   14   33       1
    40   15   34       1
    41   17   35       1
    42   18   36       1
    43   19   37       1
    44   20   38       1
    45   21   39       1
@<TRIPOS>SUBSTRUCTURE
     1 ATP288      1 GROUP             4 A     ATP     0 **** ATP A 288
