@<TRIPOS>MOLECULE
2yjz_NAP_1_ligand
   73    77     1     0     0
SMALL
NO_CHARGES


@<TRIPOS>ATOM
     1 PA          50.7790    42.7870    47.2080 P.3          1 NAP1200   0.0000
     2 O1A         50.5170    42.8720    48.6570 O.co2        1 NAP1200   0.0000
     3 O2A         52.0920    43.1120    46.6600 O.co2        1 NAP1200  -1.0000
     4 O5B         50.3520    41.2800    46.7590 O.3          1 NAP1200   0.0000
     5 C5B         50.4900    40.9790    45.3910 C.3          1 NAP1200   0.0000
     6 C4B         50.3340    39.4770    45.2610 C.3          1 NAP1200   0.0000
     7 O4B         50.6090    39.1640    43.9280 O.3          1 NAP1200   0.0000
     8 C3B         51.3520    38.6610    46.0590 C.3          1 NAP1200   0.0000
     9 O3B         50.9140    38.3740    47.3700 O.3          1 NAP1200   0.0000
    10 C2B         51.5070    37.4180    45.2010 C.3          1 NAP1200   0.0000
    11 O2B         50.8110    36.3310    45.8260 O.3          1 NAP1200   0.0000
    12 C1B         50.9000    37.7920    43.8420 C.3          1 NAP1200   0.0000
    13 N9A         51.8130    37.5980    42.7310 N.pl3        1 NAP1200   0.0000
    14 C8A         51.6270    36.8280    41.6280 C.2          1 NAP1200   0.0000
    15 N7A         52.7290    36.9280    40.8730 N.2          1 NAP1200   0.0000
    16 C5A         53.6160    37.7540    41.4670 C.ar         1 NAP1200   0.0000
    17 C6A         54.9010    38.2020    41.1140 C.ar         1 NAP1200   0.0000
    18 N6A         55.5500    37.8140    40.0030 N.pl3        1 NAP1200   0.0000
    19 N1A         55.5150    39.0740    41.9620 N.ar         1 NAP1200   0.0000
    20 C2A         54.9170    39.4940    43.1520 C.ar         1 NAP1200   0.0000
    21 N3A         53.6570    39.0590    43.4750 N.ar         1 NAP1200   0.0000
    22 C4A         53.0270    38.1970    42.6300 C.ar         1 NAP1200   0.0000
    23 O3          49.6960    43.7190    46.4930 O.3          1 NAP1200   0.0000
    24 PN          48.3080    44.1030    47.1350 P.3          1 NAP1200   0.0000
    25 O1N         48.3380    45.3780    47.9130 O.co2        1 NAP1200   0.0000
    26 O2N         47.5320    42.9720    47.6750 O.co2        1 NAP1200  -1.0000
    27 O5D         47.5630    44.4130    45.7380 O.3          1 NAP1200   0.0000
    28 C5D         47.0610    43.4450    44.8750 C.3          1 NAP1200   0.0000
    29 C4D         46.0430    44.1060    43.9520 C.3          1 NAP1200   0.0000
    30 O4D         45.0110    44.7340    44.7150 O.3          1 NAP1200   0.0000
    31 C3D         46.6640    45.2170    43.1050 C.3          1 NAP1200   0.0000
    32 O3D         46.1850    45.0960    41.8010 O.3          1 NAP1200   0.0000
    33 C2D         46.2320    46.5230    43.7620 C.3          1 NAP1200   0.0000
    34 O2D         46.3250    47.6250    42.8820 O.3          1 NAP1200   0.0000
    35 C1D         44.8340    46.0690    44.2160 C.3          1 NAP1200   0.0000
    36 N1N         44.3330    46.8900    45.3120 N.ar         1 NAP1200   1.0000
    37 C2N         45.1320    46.9880    46.4320 C.ar         1 NAP1200   0.0000
    38 C3N         44.7030    47.7580    47.4980 C.ar         1 NAP1200   0.0000
    39 C7N         45.5420    47.8900    48.7480 C.2          1 NAP1200   0.0000
    40 O7N         45.0550    48.7580    49.7330 O.2          1 NAP1200   0.0000
    41 N7N         46.6510    47.1760    48.9600 N.am         1 NAP1200   0.0000
    42 C4N         43.4830    48.4480    47.3960 C.ar         1 NAP1200   0.0000
    43 C5N         42.7160    48.3680    46.2470 C.ar         1 NAP1200   0.0000
    44 C6N         43.1430    47.5620    45.1840 C.ar         1 NAP1200   0.0000
    45 P2B         51.6040    34.9140    45.9810 P.3          1 NAP1200   0.0000
    46 O1X         51.7220    34.3310    44.5740 O.co2        1 NAP1200   0.0000
    47 O2X         50.8420    34.0450    46.9510 O.co2        1 NAP1200  -1.0000
    48 O3X         52.9500    35.2070    46.4250 O.co2        1 NAP1200  -1.0000
    49 H5B1        51.3919    41.2619    45.0646 H            1 NAP1200   0.0000
    50 H5B2        49.7822    41.4466    44.8616 H            1 NAP1200   0.0000
    51 H4B         49.4027    39.2013    45.4989 H            1 NAP1200   0.0000
    52 H3B         52.2215    39.1535    46.0961 H            1 NAP1200   0.0000
    53 H5          50.7538    39.2293    47.8627 H            1 NAP1200   0.0000
    54 H2B         52.4752    37.1914    45.0950 H            1 NAP1200   0.0000
    55 H1B         50.0592    37.2729    43.6884 H            1 NAP1200   0.0000
    56 H8A         50.8144    36.2846    41.4175 H            1 NAP1200   0.0000
    57 H6A1        56.4641    38.1696    39.8080 H            1 NAP1200   0.0000
    58 H6A2        55.1189    37.1697    39.3713 H            1 NAP1200   0.0000
    59 H2A         55.4068    40.1111    43.7678 H            1 NAP1200   0.0000
    60 H5D1        46.6183    42.7194    45.4019 H            1 NAP1200   0.0000
    61 H5D2        47.8061    43.0563    44.3331 H            1 NAP1200   0.0000
    62 H4D         45.6399    43.4153    43.3516 H            1 NAP1200   0.0000
    63 H3D         47.6610    45.1404    43.1140 H            1 NAP1200   0.0000
    64 H16         45.2663    44.7015    41.8186 H            1 NAP1200   0.0000
    65 H2D         46.8018    46.6929    44.5660 H            1 NAP1200   0.0000
    66 H18         46.0324    48.4556    43.3558 H            1 NAP1200   0.0000
    67 H1D         44.1937    46.0767    43.4479 H            1 NAP1200   0.0000
    68 H2N         46.0090    46.5092    46.4728 H            1 NAP1200   0.0000
    69 H7N1        47.1718    47.3002    49.8046 H            1 NAP1200   0.0000
    70 H7N2        46.9603    46.5173    48.2741 H            1 NAP1200   0.0000
    71 H4N         43.1650    49.0041    48.1638 H            1 NAP1200   0.0000
    72 H5N         41.8616    48.8828    46.1760 H            1 NAP1200   0.0000
    73 H6N         42.5943    47.4782    44.3522 H            1 NAP1200   0.0000
@<TRIPOS>BOND
     1    1    2      ar
     2    1    3      ar
     3    1    4       1
     4    1   23       1
     5    4    5       1
     6    5    6       1
     7    6    7       1
     8    6    8       1
     9    7   12       1
    10    8    9       1
    11    8   10       1
    12   10   11       1
    13   10   12       1
    14   11   45       1
    15   12   13       1
    16   13   14       1
    17   13   22       1
    18   14   15       2
    19   15   16       1
    20   16   17      ar
    21   16   22      ar
    22   17   18       1
    23   17   19      ar
    24   19   20      ar
    25   20   21      ar
    26   21   22      ar
    27   23   24       1
    28   24   25      ar
    29   24   26      ar
    30   24   27       1
    31   27   28       1
    32   28   29       1
    33   29   30       1
    34   29   31       1
    35   30   35       1
    36   31   32       1
    37   31   33       1
    38   33   34       1
    39   33   35       1
    40   35   36       1
    41   36   37      ar
    42   36   44      ar
    43   37   38      ar
    44   38   39       1
    45   38   42      ar
    46   39   40       2
    47   39   41      am
    48   42   43      ar
    49   43   44      ar
    50   45   46      ar
    51   45   47      ar
    52   45   48      ar
    53   43   72       1
    54    5   49       1
    55    5   50       1
    56    6   51       1
    57    8   52       1
    58    9   53       1
    59   10   54       1
    60   12   55       1
    61   14   56       1
    62   18   57       1
    63   18   58       1
    64   20   59       1
    65   44   73       1
    66   28   60       1
    67   28   61       1
    68   29   62       1
    69   31   63       1
    70   32   64       1
    71   33   65       1
    72   34   66       1
    73   35   67       1
    74   37   68       1
    75   41   69       1
    76   41   70       1
    77   42   71       1
@<TRIPOS>SUBSTRUCTURE
     1 NAP1200     1 GROUP             4 A     NAP     0 **** NAP A1200
