@<TRIPOS>MOLECULE
3bje_URA_1_ligand
   12    12     1     0     0
SMALL
NO_CHARGES


@<TRIPOS>ATOM
     1 N1           7.1600     2.6720    28.3650 N.pl3        1 URA501   0.0000
     2 C2           8.1790     3.5280    28.1290 C.2          1 URA501   0.0000
     3 O2           8.6260     3.7220    26.9540 O.2          1 URA501   0.0000
     4 N3           8.7460     4.1690    29.1390 N.pl3        1 URA501   0.0000
     5 C4           8.3320     3.9840    30.4070 C.2          1 URA501   0.0000
     6 O4           8.9000     4.6190    31.3120 O.2          1 URA501   0.0000
     7 C5           7.3020     3.1030    30.6720 C.2          1 URA501   0.0000
     8 C6           6.7200     2.4430    29.6060 C.2          1 URA501   0.0000
     9 H1           6.7271     2.2010    27.5964 H            1 URA501   0.0000
    10 H2           9.4971     4.8035    28.9566 H            1 URA501   0.0000
    11 H3           6.9864     2.9471    31.6080 H            1 URA501   0.0000
    12 H4           5.9730     1.7970    29.7627 H            1 URA501   0.0000
@<TRIPOS>BOND
     1    1    2       1
     2    1    8       1
     3    2    3       2
     4    2    4       1
     5    4    5       1
     6    5    6       2
     7    5    7       1
     8    7    8       2
     9    1    9       1
    10    4   10       1
    11    7   11       1
    12    8   12       1
@<TRIPOS>SUBSTRUCTURE
     1 URA501      1 GROUP             4 A     URA     0 **** URA A 501
