@<TRIPOS>MOLECULE
4jsc_1OY_1_ligand
   68    70     1     0     0
SMALL
NO_CHARGES


@<TRIPOS>ATOM
     1 C1         -11.5110    20.8680     0.8390 C.3          1 1OY201   0.0000
     2 C10        -12.2880    22.0650     0.4180 C.2          1 1OY201   0.0000
     3 N11        -11.6200    22.9450    -0.3750 N.am         1 1OY201   0.0000
     4 C12        -12.1560    24.2630    -0.7000 C.3          1 1OY201   0.0000
     5 C13        -11.0050    25.2690    -0.6510 C.3          1 1OY201   0.0000
     6 C14        -11.4250    26.5980    -1.2560 C.3          1 1OY201   0.0000
     7 O14        -10.2700    27.3480    -1.6630 O.3          1 1OY201   0.0000
     8 C15        -12.2870    27.3920    -0.2640 C.3          1 1OY201   0.0000
     9 O15        -11.5350    27.7190     0.9060 O.3          1 1OY201   0.0000
    10 O10        -13.4430    22.3030     0.7910 O.2          1 1OY201   0.0000
    11 N1         -10.1840    20.8320     0.1460 N.3          1 1OY201   0.0000
    12 C2         -12.1930    19.5750     0.4470 C.3          1 1OY201   0.0000
    13 C21        -13.2610    19.1570     1.4000 C.ar         1 1OY201   0.0000
    14 C26        -13.1450    19.3740     2.7710 C.ar         1 1OY201   0.0000
    15 C25        -14.1610    18.9140     3.6300 C.ar         1 1OY201   0.0000
    16 C22        -14.3870    18.5340     0.9260 C.ar         1 1OY201   0.0000
    17 F2         -14.5680    18.4350    -0.3950 F            1 1OY201   0.0000
    18 C23        -15.3710    18.0350     1.7360 C.ar         1 1OY201   0.0000
    19 CL2        -16.7150    17.1480     1.0210 Cl           1 1OY201   0.0000
    20 C24        -15.2750    18.2330     3.1140 C.ar         1 1OY201   0.0000
    21 C3         -11.0330    18.6000     0.3470 C.3          1 1OY201   0.0000
    22 C37        -10.4990    18.2800     1.6760 C.1          1 1OY201   0.0000
    23 N37        -10.0660    18.0310     2.7070 N.1          1 1OY201   0.0000
    24 C31        -11.3580    17.3210    -0.3700 C.ar         1 1OY201   0.0000
    25 C32        -11.9690    17.3190    -1.6070 C.ar         1 1OY201   0.0000
    26 F3         -12.1800    18.5050    -2.2300 F            1 1OY201   0.0000
    27 C33        -12.3660    16.1710    -2.2490 C.ar         1 1OY201   0.0000
    28 C36        -11.0680    16.0950     0.2300 C.ar         1 1OY201   0.0000
    29 C35        -11.4460    14.9080    -0.3980 C.ar         1 1OY201   0.0000
    30 C34        -12.1180    14.9590    -1.6270 C.ar         1 1OY201   0.0000
    31 CL3        -12.6830    13.4820    -2.3790 Cl           1 1OY201   0.0000
    32 C4          -9.9990    19.4320    -0.3790 C.3          1 1OY201   0.0000
    33 C41         -8.5930    18.9140    -0.1070 C.3          1 1OY201   0.0000
    34 C42         -7.6640    19.2440    -1.2790 C.3          1 1OY201   0.0000
    35 C45         -8.0400    20.6030    -1.8770 C.3          1 1OY201   0.0000
    36 C44         -7.8180    18.1560    -2.3480 C.3          1 1OY201   0.0000
    37 C43         -6.2090    19.2820    -0.7840 C.3          1 1OY201   0.0000
    38 H1         -11.3727    20.8883     1.8292 H            1 1OY201   0.0000
    39 H2         -10.7310    22.6799    -0.7483 H            1 1OY201   0.0000
    40 H3         -12.8572    24.5174    -0.0340 H            1 1OY201   0.0000
    41 H4         -12.5559    24.2498    -1.6165 H            1 1OY201   0.0000
    42 H5         -10.2290    24.9048    -1.1659 H            1 1OY201   0.0000
    43 H6         -10.7353    25.4127     0.3012 H            1 1OY201   0.0000
    44 H7         -11.9772    26.4103    -2.0683 H            1 1OY201   0.0000
    45 H8         -10.5607    28.2191    -2.0588 H            1 1OY201   0.0000
    46 H9         -13.0790    26.8405    -0.0021 H            1 1OY201   0.0000
    47 H10        -12.5982    28.2358    -0.7011 H            1 1OY201   0.0000
    48 H11        -12.1116    28.2350     1.5394 H            1 1OY201   0.0000
    49 H12        -12.5978    19.6873    -0.4605 H            1 1OY201   0.0000
    50 H13        -12.3482    19.8516     3.1412 H            1 1OY201   0.0000
    51 H14        -14.0887    19.0734     4.6146 H            1 1OY201   0.0000
    52 H15        -15.9900    17.8944     3.7257 H            1 1OY201   0.0000
    53 H16        -12.8205    16.2096    -3.1389 H            1 1OY201   0.0000
    54 H17        -10.5903    16.0673     1.1081 H            1 1OY201   0.0000
    55 H18        -11.2388    14.0263     0.0260 H            1 1OY201   0.0000
    56 H19        -10.1810    19.4136    -1.3621 H            1 1OY201   0.0000
    57 H20         -8.6260    17.9224     0.0177 H            1 1OY201   0.0000
    58 H21         -8.2393    19.3429     0.7242 H            1 1OY201   0.0000
    59 H22         -7.4295    20.8114    -2.6411 H            1 1OY201   0.0000
    60 H23         -8.9847    20.5736    -2.2036 H            1 1OY201   0.0000
    61 H24         -7.9513    21.3114    -1.1767 H            1 1OY201   0.0000
    62 H25         -7.2159    18.3597    -3.1200 H            1 1OY201   0.0000
    63 H26         -7.5718    17.2686    -1.9583 H            1 1OY201   0.0000
    64 H27         -8.7668    18.1301    -2.6630 H            1 1OY201   0.0000
    65 H28         -5.6021    19.4975    -1.5491 H            1 1OY201   0.0000
    66 H29         -6.1157    19.9829    -0.0769 H            1 1OY201   0.0000
    67 H30         -5.9628    18.3904    -0.4041 H            1 1OY201   0.0000
    68 H31         -9.4535    21.0562     0.7911 H            1 1OY201   0.0000
@<TRIPOS>BOND
     1    1    2       1
     2    1   11       1
     3    1   12       1
     4    2    3      am
     5    2   10       2
     6    3    4       1
     7    4    5       1
     8    5    6       1
     9    6    7       1
    10    6    8       1
    11    8    9       1
    12   11   32       1
    13   12   13       1
    14   12   21       1
    15   13   14      ar
    16   13   16      ar
    17   14   15      ar
    18   15   20      ar
    19   16   17       1
    20   16   18      ar
    21   18   19       1
    22   18   20      ar
    23   21   22       1
    24   21   24       1
    25   21   32       1
    26   22   23       3
    27   24   25      ar
    28   24   28      ar
    29   25   26       1
    30   25   27      ar
    31   27   30      ar
    32   28   29      ar
    33   29   30      ar
    34   30   31       1
    35   32   33       1
    36   33   34       1
    37   34   35       1
    38   34   36       1
    39   34   37       1
    40    1   38       1
    41    3   39       1
    42    4   40       1
    43    4   41       1
    44    5   42       1
    45    5   43       1
    46    6   44       1
    47    7   45       1
    48    8   46       1
    49    8   47       1
    50    9   48       1
    51   11   68       1
    52   12   49       1
    53   14   50       1
    54   15   51       1
    55   20   52       1
    56   27   53       1
    57   28   54       1
    58   29   55       1
    59   32   56       1
    60   33   57       1
    61   33   58       1
    62   35   59       1
    63   35   60       1
    64   35   61       1
    65   36   62       1
    66   36   63       1
    67   36   64       1
    68   37   65       1
    69   37   66       1
    70   37   67       1
@<TRIPOS>SUBSTRUCTURE
     1 1OY201      1 GROUP             4 A     1OY     0 **** 1OY A 201
