@<TRIPOS>MOLECULE
3qdq_COA_1_ligand
   80    82     1     0     0
SMALL
NO_CHARGES


@<TRIPOS>ATOM
     1 N1A        -22.4580     2.8400    20.5200 N.ar         1 COA500   0.0000
     2 C2A        -22.6250     1.9670    19.5130 C.ar         1 COA500   0.0000
     3 N3A        -23.8230     1.6920    18.9770 N.ar         1 COA500   0.0000
     4 C4A        -24.9550     2.2830    19.4350 C.ar         1 COA500   0.0000
     5 C5A        -24.8410     3.2560    20.5310 C.ar         1 COA500   0.0000
     6 C6A        -23.4910     3.5190    21.0700 C.ar         1 COA500   0.0000
     7 N6A        -23.3150     4.4040    22.0820 N.pl3        1 COA500   0.0000
     8 N7A        -26.0790     3.7000    20.7940 N.2          1 COA500   0.0000
     9 C8A        -26.9120     3.0590    19.9380 C.2          1 COA500   0.0000
    10 N9A        -26.2520     2.2160    19.1240 N.pl3        1 COA500   0.0000
    11 C1B        -26.8500     1.3510    18.0590 C.3          1 COA500   0.0000
    12 C2B        -28.0560     0.5360    18.5350 C.3          1 COA500   0.0000
    13 O2B        -27.6580    -0.8200    18.7310 O.3          1 COA500   0.0000
    14 C3B        -29.1060     0.6730    17.4360 C.3          1 COA500   0.0000
    15 O3B        -29.5100    -0.6030    16.8810 O.3          1 COA500   0.0000
    16 P3B        -29.1680    -1.3060    15.4360 P.3          1 COA500   0.0000
    17 O7A        -29.6330    -2.7250    15.7070 O.co2        1 COA500   0.0000
    18 O8A        -27.6760    -1.1660    15.2440 O.co2        1 COA500  -1.0000
    19 O9A        -29.9860    -0.6060    14.3630 O.co2        1 COA500  -1.0000
    20 C4B        -28.5420     1.6940    16.4450 C.3          1 COA500   0.0000
    21 O4B        -27.2460     2.0870    16.8940 O.3          1 COA500   0.0000
    22 C5B        -29.3750     2.9630    16.3760 C.3          1 COA500   0.0000
    23 O5B        -29.8020     3.4020    17.6740 O.3          1 COA500   0.0000
    24 P1A        -31.3890     3.5020    17.9780 P.3          1 COA500   0.0000
    25 O1A        -31.4760     3.5710    19.4830 O.co2        1 COA500   0.0000
    26 O2A        -32.0460     2.3700    17.1920 O.co2        1 COA500  -1.0000
    27 O3A        -31.8160     4.9010    17.2690 O.3          1 COA500   0.0000
    28 P2A        -33.2940     5.5920    17.1220 P.3          1 COA500   0.0000
    29 O4A        -34.0710     5.5600    18.4330 O.co2        1 COA500   0.0000
    30 O5A        -33.9430     5.2060    15.8070 O.co2        1 COA500  -1.0000
    31 O6A        -32.7410     7.0880    16.9580 O.3          1 COA500   0.0000
    32 CBP        -31.0760     8.7790    17.5580 C.3          1 COA500   0.0000
    33 CCP        -31.7080     7.4460    17.8810 C.3          1 COA500   0.0000
    34 CDP        -30.5300     9.3530    18.8620 C.3          1 COA500   0.0000
    35 CEP        -29.9550     8.5390    16.5550 C.3          1 COA500   0.0000
    36 CAP        -32.1270     9.7000    16.9290 C.3          1 COA500   0.0000
    37 OAP        -33.1990     9.9230    17.8560 O.3          1 COA500   0.0000
    38 C9P        -31.4660    10.9670    16.4410 C.2          1 COA500   0.0000
    39 O9P        -31.0540    10.9970    15.2890 O.2          1 COA500   0.0000
    40 N8P        -31.3490    11.9880    17.2920 N.am         1 COA500   0.0000
    41 C7P        -30.7220    13.2860    17.0560 C.3          1 COA500   0.0000
    42 C6P        -31.7200    14.2320    16.3930 C.3          1 COA500   0.0000
    43 C5P        -32.7850    14.7430    17.3500 C.2          1 COA500   0.0000
    44 O5P        -32.7340    14.5220    18.5600 O.2          1 COA500   0.0000
    45 N4P        -33.7420    15.4370    16.7170 N.am         1 COA500   0.0000
    46 C3P        -34.9750    16.1060    17.1400 C.3          1 COA500   0.0000
    47 C2P        -35.7510    16.2150    15.8210 C.3          1 COA500   0.0000
    48 S1P        -37.5290    15.7950    15.9560 S.3          1 COA500   0.0000
    49 H2A        -21.8196     1.5011    19.1465 H            1 COA500   0.0000
    50 H6A1       -24.1015     4.8885    22.4649 H            1 COA500   0.0000
    51 H6A2       -22.3987     4.5722    22.4455 H            1 COA500   0.0000
    52 H8A        -27.9022     3.1969    19.9145 H            1 COA500   0.0000
    53 H1B        -26.1457     0.7007    17.7743 H            1 COA500   0.0000
    54 H2B        -28.4072     0.9152    19.3911 H            1 COA500   0.0000
    55 H7         -28.1961    -1.4150    18.1339 H            1 COA500   0.0000
    56 H3B        -29.9171     1.0834    17.8527 H            1 COA500   0.0000
    57 H4B        -28.4753     1.2827    15.5360 H            1 COA500   0.0000
    58 H5B1       -30.1829     2.7878    15.8133 H            1 COA500   0.0000
    59 H5B2       -28.8265     3.6859    15.9558 H            1 COA500   0.0000
    60 HCP1       -30.9989     6.7413    17.8570 H            1 COA500   0.0000
    61 HCP2       -32.1011     7.4922    18.7993 H            1 COA500   0.0000
    62 HDP1       -30.1030    10.2394    18.6831 H            1 COA500   0.0000
    63 HDP2       -31.2789     9.4694    19.5143 H            1 COA500   0.0000
    64 HDP3       -29.8503     8.7264    19.2432 H            1 COA500   0.0000
    65 HEP1       -29.5208     9.4101    16.3257 H            1 COA500   0.0000
    66 HEP2       -29.2761     7.9232    16.9549 H            1 COA500   0.0000
    67 HEP3       -30.3322     8.1261    15.7260 H            1 COA500   0.0000
    68 HAP        -32.5066     9.2290    16.1327 H            1 COA500   0.0000
    69 H21        -34.0493    10.0748    17.3521 H            1 COA500   0.0000
    70 H8P        -31.7380    11.8474    18.2024 H            1 COA500   0.0000
    71 H7P1       -29.9295    13.1676    16.4577 H            1 COA500   0.0000
    72 H7P2       -30.4259    13.6747    17.9285 H            1 COA500   0.0000
    73 H6P1       -32.1714    13.7450    15.6453 H            1 COA500   0.0000
    74 H6P2       -31.2195    15.0161    16.0260 H            1 COA500   0.0000
    75 H4P        -33.5768    15.5158    15.7339 H            1 COA500   0.0000
    76 H3P1       -34.7843    17.0092    17.5245 H            1 COA500   0.0000
    77 H3P2       -35.4741    15.5570    17.8104 H            1 COA500   0.0000
    78 H2P1       -35.3318    15.5940    15.1587 H            1 COA500   0.0000
    79 H2P2       -35.6756    17.1556    15.4900 H            1 COA500   0.0000
    80 H1P        -37.9628    15.8896    15.0600 H            1 COA500   0.0000
@<TRIPOS>BOND
     1    1    2      ar
     2    1    6      ar
     3    2    3      ar
     4    3    4      ar
     5    4    5      ar
     6    4   10       1
     7    5    6      ar
     8    5    8       1
     9    6    7       1
    10    8    9       2
    11    9   10       1
    12   10   11       1
    13   11   12       1
    14   11   21       1
    15   12   13       1
    16   12   14       1
    17   14   15       1
    18   14   20       1
    19   15   16       1
    20   16   17      ar
    21   16   18      ar
    22   16   19      ar
    23   20   21       1
    24   20   22       1
    25   22   23       1
    26   23   24       1
    27   24   25      ar
    28   24   26      ar
    29   24   27       1
    30   27   28       1
    31   28   29      ar
    32   28   30      ar
    33   28   31       1
    34   31   33       1
    35   32   33       1
    36   32   34       1
    37   32   35       1
    38   32   36       1
    39   36   37       1
    40   36   38       1
    41   38   39       2
    42   38   40      am
    43   40   41       1
    44   41   42       1
    45   42   43       1
    46   43   44       2
    47   43   45      am
    48   45   46       1
    49   46   47       1
    50   47   48       1
    51    2   49       1
    52    7   50       1
    53    7   51       1
    54    9   52       1
    55   11   53       1
    56   12   54       1
    57   13   55       1
    58   14   56       1
    59   48   80       1
    60   47   79       1
    61   20   57       1
    62   22   58       1
    63   22   59       1
    64   47   78       1
    65   46   77       1
    66   33   60       1
    67   33   61       1
    68   34   62       1
    69   34   63       1
    70   34   64       1
    71   35   65       1
    72   35   66       1
    73   35   67       1
    74   36   68       1
    75   37   69       1
    76   40   70       1
    77   41   71       1
    78   41   72       1
    79   42   73       1
    80   42   74       1
    81   45   75       1
    82   46   76       1
@<TRIPOS>SUBSTRUCTURE
     1 COA500      1 GROUP             4 A     COA     0 **** COA A 500
