@<TRIPOS>MOLECULE
4kcf_AKM_1_ligand
   64    66     1     0     0
SMALL
NO_CHARGES


@<TRIPOS>ATOM
     1 O2P         18.1970    21.5320   -15.7120 O.co2        1 AKM501   0.0000
     2 P           19.3840    22.3920   -16.1560 P.3          1 AKM501   0.0000
     3 O1P         20.7630    21.9920   -15.7190 O.co2        1 AKM501  -1.0000
     4 OPP         19.4380    22.4260   -17.7490 O.3          1 AKM501   0.0000
     5 P2          18.2380    22.5660   -18.7990 P.3          1 AKM501   0.0000
     6 O3P         18.9390    23.0080   -20.0770 O.co2        1 AKM501   0.0000
     7 O1          17.7410    21.0660   -19.0380 O.3          1 AKM501   0.0000
     8 C1          16.5240    20.5230   -18.5570 C.3          1 AKM501   0.0000
     9 C2          16.5770    18.9860   -18.5990 C.3          1 AKM501   0.0000
    10 C3          15.1690    18.4060   -18.4680 C.3          1 AKM501   0.0000
    11 C3M         14.9140    18.5060   -16.9600 C.3          1 AKM501   0.0000
    12 N3          15.1390    16.9900   -18.8620 N.4          1 AKM501   1.0000
    13 C4          14.1400    19.0780   -19.3900 C.3          1 AKM501   0.0000
    14 O4A         14.1620    18.4930   -20.7030 O.3          1 AKM501   0.0000
    15 O4B         12.8100    18.8100   -18.9110 O.3          1 AKM501   0.0000
    16 C5          14.4350    20.4930   -19.8900 C.3          1 AKM501   0.0000
    17 C6          13.3070    21.4950   -20.1020 C.3          1 AKM501   0.0000
    18 O5          15.6040    21.1670   -19.4290 O.3          1 AKM501   0.0000
    19 O4P         17.0450    23.4040   -18.3680 O.co2        1 AKM501  -1.0000
    20 O5'         19.0910    23.8830   -15.6320 O.3          1 AKM501   0.0000
    21 C5'         20.1000    24.8570   -15.8920 C.3          1 AKM501   0.0000
    22 C4'         19.3040    26.1390   -16.0620 C.3          1 AKM501   0.0000
    23 C3'         20.1540    27.3390   -16.4940 C.3          1 AKM501   0.0000
    24 O3'         19.9980    27.4960   -17.8970 O.3          1 AKM501   0.0000
    25 C2'         19.5510    28.5420   -15.7890 C.3          1 AKM501   0.0000
    26 C1'         18.5640    27.9630   -14.7730 C.3          1 AKM501   0.0000
    27 O4'         18.7490    26.5320   -14.8040 O.3          1 AKM501   0.0000
    28 N11         18.6880    28.4330   -13.3870 N.pl3        1 AKM501   0.0000
    29 C21         17.6200    28.9570   -12.7960 C.2          1 AKM501   0.0000
    30 O21         16.4730    29.1120   -13.5020 O.2          1 AKM501   0.0000
    31 N31         17.6280    29.3980   -11.5270 N.pl3        1 AKM501   0.0000
    32 C41         18.7600    29.2620   -10.8130 C.2          1 AKM501   0.0000
    33 O41         18.8310    29.6660    -9.5230 O.2          1 AKM501   0.0000
    34 C51         19.9570    28.6440   -11.4110 C.2          1 AKM501   0.0000
    35 C5A         21.2070    28.4850   -10.5920 C.3          1 AKM501   0.0000
    36 C61         19.8530    28.2500   -12.7340 C.2          1 AKM501   0.0000
    37 H1          16.3674    20.8285   -17.6178 H            1 AKM501   0.0000
    38 H2          17.1426    18.6542   -17.8440 H            1 AKM501   0.0000
    39 H3          16.9756    18.6928   -19.4680 H            1 AKM501   0.0000
    40 H3M1        14.0038    18.1482   -16.7514 H            1 AKM501   0.0000
    41 H3M2        15.6026    17.9720   -16.4694 H            1 AKM501   0.0000
    42 H3M3        14.9692    19.4630   -16.6753 H            1 AKM501   0.0000
    43 H7          14.2082    16.6371   -18.7668 H            1 AKM501   0.0000
    44 H8          15.4329    16.9026   -19.8138 H            1 AKM501   0.0000
    45 H4A         13.2509    18.5546   -21.1107 H            1 AKM501   0.0000
    46 H4B         12.1438    19.2491   -19.5138 H            1 AKM501   0.0000
    47 H11         14.6933    20.3034   -20.8373 H            1 AKM501   0.0000
    48 H12         13.6869    22.3603   -20.4290 H            1 AKM501   0.0000
    49 H13         12.6649    21.1358   -20.7793 H            1 AKM501   0.0000
    50 H14         12.8288    21.6466   -19.2369 H            1 AKM501   0.0000
    51 H5'1        20.6066    24.6357   -16.7253 H            1 AKM501   0.0000
    52 H5'2        20.7365    24.9286   -15.1240 H            1 AKM501   0.0000
    53 H4'         18.5682    25.9927   -16.7232 H            1 AKM501   0.0000
    54 H3'         21.1145    27.2141   -16.2454 H            1 AKM501   0.0000
    55 H19         20.5433    28.2744   -18.2080 H            1 AKM501   0.0000
    56 H2'1        19.0753    29.1294   -16.4437 H            1 AKM501   0.0000
    57 H2'2        20.2629    29.0688   -15.3246 H            1 AKM501   0.0000
    58 H1'         17.6369    28.1646   -15.0890 H            1 AKM501   0.0000
    59 H23         16.8140    29.8163   -11.1239 H            1 AKM501   0.0000
    60 H5A1        21.9164    28.0510   -11.1473 H            1 AKM501   0.0000
    61 H5A2        21.5239    29.3839   -10.2894 H            1 AKM501   0.0000
    62 H5A3        21.0125    27.9142    -9.7943 H            1 AKM501   0.0000
    63 H27         20.6338    27.8341   -13.2003 H            1 AKM501   0.0000
    64 H28         15.7556    16.4671   -18.2734 H            1 AKM501   0.0000
@<TRIPOS>BOND
     1    1    2      ar
     2    2    3      ar
     3    2    4       1
     4    2   20       1
     5    4    5       1
     6    5    6      ar
     7    5    7       1
     8    5   19      ar
     9    7    8       1
    10    8    9       1
    11    8   18       1
    12    9   10       1
    13   10   11       1
    14   10   12       1
    15   10   13       1
    16   13   14       1
    17   13   15       1
    18   13   16       1
    19   16   17       1
    20   16   18       1
    21   20   21       1
    22   21   22       1
    23   22   23       1
    24   22   27       1
    25   23   24       1
    26   23   25       1
    27   25   26       1
    28   26   27       1
    29   26   28       1
    30   28   29       1
    31   28   36       1
    32   29   30       2
    33   29   31       1
    34   31   32       1
    35   32   33       2
    36   32   34       1
    37   34   35       1
    38   34   36       2
    39   36   63       1
    40   35   62       1
    41    8   37       1
    42    9   38       1
    43    9   39       1
    44   11   40       1
    45   11   41       1
    46   11   42       1
    47   12   43       1
    48   12   44       1
    49   14   45       1
    50   15   46       1
    51   16   47       1
    52   17   48       1
    53   17   49       1
    54   17   50       1
    55   21   51       1
    56   21   52       1
    57   22   53       1
    58   23   54       1
    59   24   55       1
    60   25   56       1
    61   25   57       1
    62   26   58       1
    63   31   59       1
    64   35   60       1
    65   35   61       1
    66   12   64       1
@<TRIPOS>SUBSTRUCTURE
     1 AKM501      1 GROUP             4 A     AKM     0 **** AKM A 501
