@<TRIPOS>MOLECULE
3i6d_ACJ_2_ligand
   30    31     1     0     0
SMALL
NO_CHARGES


@<TRIPOS>ATOM
     1 O3          41.8100   -31.4600    19.5090 O.co2        1 ACJ471   0.0000
     2 C11         42.2980   -32.1030    20.4230 C.2          1 ACJ471   0.0000
     3 O2          42.0390   -31.7400    21.7000 O.co2        1 ACJ471  -1.0000
     4 C9          44.4560   -33.2970    20.8340 C.ar         1 ACJ471   0.0000
     5 C14         42.8610   -34.3770    19.2220 C.ar         1 ACJ471   0.0000
     6 C8          45.3670   -34.3580    20.6380 C.ar         1 ACJ471   0.0000
     7 N1          41.5610   -34.4680    18.4160 N.2          1 ACJ471   1.0000
     8 C13         43.7940   -35.4290    19.0590 C.ar         1 ACJ471   0.0000
     9 O5          41.3770   -35.4260    17.6680 O.co2        1 ACJ471   0.0000
    10 C12         45.0160   -35.4310    19.7460 C.ar         1 ACJ471   0.0000
    11 O1          46.6020   -34.3340    21.3140 O.3          1 ACJ471   0.0000
    12 C7          47.7330   -34.0990    20.4450 C.ar         1 ACJ471   0.0000
    13 O4          40.6860   -33.6130    18.4780 O.co2        1 ACJ471  -1.0000
    14 C6          47.6070   -33.9120    19.0180 C.ar         1 ACJ471   0.0000
    15 C10         43.1980   -33.2740    20.1510 C.ar         1 ACJ471   0.0000
    16 C4          49.0460   -34.0500    20.9990 C.ar         1 ACJ471   0.0000
    17 C5          48.7100   -33.6970    18.1920 C.ar         1 ACJ471   0.0000
    18 C2          49.9990   -33.6500    18.7190 C.ar         1 ACJ471   0.0000
    19 CL1         49.2680   -34.2690    22.7100 Cl           1 ACJ471   0.0000
    20 C3          50.1770   -33.8260    20.1380 C.ar         1 ACJ471   0.0000
    21 C1          51.1790   -33.4100    17.7450 C.3          1 ACJ471   0.0000
    22 F1          50.8150   -32.4610    16.7670 F            1 ACJ471   0.0000
    23 F2          52.3020   -32.9200    18.4390 F            1 ACJ471   0.0000
    24 F3          51.5120   -34.6180    17.0890 F            1 ACJ471   0.0000
    25 H1          44.6926   -32.5522    21.4579 H            1 ACJ471   0.0000
    26 H2          43.5772   -36.1854    18.4418 H            1 ACJ471   0.0000
    27 H3          45.6536   -36.1900    19.6141 H            1 ACJ471   0.0000
    28 H4          46.6955   -33.9377    18.6075 H            1 ACJ471   0.0000
    29 H5          48.5740   -33.5750    17.2088 H            1 ACJ471   0.0000
    30 H6          51.0968   -33.7921    20.5288 H            1 ACJ471   0.0000
@<TRIPOS>BOND
     1    1    2      ar
     2    2    3      ar
     3    2   15       1
     4    4    6      ar
     5    4   15      ar
     6    5    7       1
     7    5    8      ar
     8    5   15      ar
     9    6   10      ar
    10    6   11       1
    11    7    9      ar
    12    7   13      ar
    13    8   10      ar
    14   11   12       1
    15   12   14      ar
    16   12   16      ar
    17   14   17      ar
    18   16   19       1
    19   16   20      ar
    20   17   18      ar
    21   18   20      ar
    22   18   21       1
    23   21   22       1
    24   21   23       1
    25   21   24       1
    26   20   30       1
    27    4   25       1
    28    8   26       1
    29   10   27       1
    30   14   28       1
    31   17   29       1
@<TRIPOS>SUBSTRUCTURE
     1 ACJ471      1 GROUP             4 B     ACJ     0 **** ACJ B 471
