@<TRIPOS>MOLECULE
4u0i_0LI_1_ligand
   68    72     1     0     0
SMALL
NO_CHARGES


@<TRIPOS>ATOM
     1 N1          34.5450    14.9950    38.5350 N.2          1 0LI1001   0.0000
     2 N3          35.3820     6.6870    52.5870 N.4          1 0LI1001   1.0000
     3 C4          35.2620    10.9050    40.8230 C.1          1 0LI1001   0.0000
     4 C5          34.9380     9.6780    41.5510 C.ar         1 0LI1001   0.0000
     5 C6          34.4960     8.4170    40.9130 C.ar         1 0LI1001   0.0000
     6 C7          34.1880     7.2550    41.7570 C.ar         1 0LI1001   0.0000
     7 C8          34.3190     7.3560    43.2100 C.ar         1 0LI1001   0.0000
     8 C10         35.0580     9.7460    42.9550 C.ar         1 0LI1001   0.0000
     9 C13         34.6850     7.7090    47.4910 C.ar         1 0LI1001   0.0000
    10 C15         34.9570     6.4910    49.6580 C.ar         1 0LI1001   0.0000
    11 C17         33.9920     8.8310    49.6560 C.ar         1 0LI1001   0.0000
    12 C20         34.3120     7.4800    51.9630 C.3          1 0LI1001   0.0000
    13 C21         36.7400     7.3360    52.5280 C.3          1 0LI1001   0.0000
    14 C22         37.8400     6.3420    53.0320 C.3          1 0LI1001   0.0000
    15 C24         35.0350     6.1990    53.9750 C.3          1 0LI1001   0.0000
    16 C81         36.8240    15.9620    37.9630 C.2          1 0LI1001   0.0000
    17 C82         38.1890    15.6700    38.1020 C.2          1 0LI1001   0.0000
    18 C83         38.6010    14.4420    38.7700 C.2          1 0LI1001   0.0000
    19 N81         37.7650    13.5240    39.2940 N.2          1 0LI1001   0.0000
    20 N82         36.4350    13.8600    39.1340 N.pl3        1 0LI1001   0.0000
    21 C84         35.8650    15.0310    38.4970 C.2          1 0LI1001   0.0000
    22 C1          34.2230    13.8230    39.1930 C.2          1 0LI1001   0.0000
    23 C2          35.3520    13.1430    39.5490 C.2          1 0LI1001   0.0000
    24 C3          35.3660    11.9400    40.2250 C.1          1 0LI1001   0.0000
    25 C9          34.7600     8.6200    43.8100 C.ar         1 0LI1001   0.0000
    26 C11         34.3390     8.2910    39.3860 C.3          1 0LI1001   0.0000
    27 C12         34.9140     8.8350    45.2770 C.2          1 0LI1001   0.0000
    28 O1          35.0780     9.9780    45.6940 O.2          1 0LI1001   0.0000
    29 N2          34.8330     7.7340    46.0670 N.am         1 0LI1001   0.0000
    30 C14         35.0950     6.5350    48.2150 C.ar         1 0LI1001   0.0000
    31 C16         34.4140     7.6170    50.4070 C.ar         1 0LI1001   0.0000
    32 C18         34.1410     8.8330    48.2360 C.ar         1 0LI1001   0.0000
    33 C19         33.4080    10.1070    50.3060 C.3          1 0LI1001   0.0000
    34 F1          34.3540    10.7030    51.0250 F            1 0LI1001   0.0000
    35 F2          32.9700    10.9910    49.4120 F            1 0LI1001   0.0000
    36 F3          32.3530     9.7900    51.0610 F            1 0LI1001   0.0000
    37 C23         36.1900     5.3120    54.6120 C.3          1 0LI1001   0.0000
    38 C25         38.6690     5.1440    55.0120 C.3          1 0LI1001   0.0000
    39 N4          37.5700     5.9440    54.4460 N.4          1 0LI1001   1.0000
    40 H1          33.8895     6.3970    41.3391 H            1 0LI1001   0.0000
    41 H2          34.1095     6.5691    43.7904 H            1 0LI1001   0.0000
    42 H3          35.3597    10.6030    43.3728 H            1 0LI1001   0.0000
    43 H4          35.2412     5.6685    50.1507 H            1 0LI1001   0.0000
    44 H5          34.3357     8.3985    52.3578 H            1 0LI1001   0.0000
    45 H6          33.4374     7.0464    52.1799 H            1 0LI1001   0.0000
    46 H7          36.7415     8.1511    53.1074 H            1 0LI1001   0.0000
    47 H8          36.9397     7.5979    51.5838 H            1 0LI1001   0.0000
    48 H9          38.7347     6.7856    52.9792 H            1 0LI1001   0.0000
    49 H10         37.8377     5.5263    52.4535 H            1 0LI1001   0.0000
    50 H11         34.2004     5.6505    53.9232 H            1 0LI1001   0.0000
    51 H12         34.8770     6.9916    54.5639 H            1 0LI1001   0.0000
    52 H13         36.5241    16.7979    37.5034 H            1 0LI1001   0.0000
    53 H14         38.8765    16.3019    37.7442 H            1 0LI1001   0.0000
    54 H15         39.5826    14.2665    38.8456 H            1 0LI1001   0.0000
    55 H16         33.2906    13.5152    39.3824 H            1 0LI1001   0.0000
    56 H17         34.0334     7.3667    39.1575 H            1 0LI1001   0.0000
    57 H18         33.6634     8.9544    39.0645 H            1 0LI1001   0.0000
    58 H19         35.2183     8.4701    38.9446 H            1 0LI1001   0.0000
    59 H20         34.8818     6.8478    45.6063 H            1 0LI1001   0.0000
    60 H21         35.4744     5.7508    47.7240 H            1 0LI1001   0.0000
    61 H22         33.8574     9.6470    47.7291 H            1 0LI1001   0.0000
    62 H23         36.1909     4.4173    54.1652 H            1 0LI1001   0.0000
    63 H24         36.0050     5.1970    55.5880 H            1 0LI1001   0.0000
    64 H25         38.4505     4.8984    55.9564 H            1 0LI1001   0.0000
    65 H26         38.7888     4.3119    54.4704 H            1 0LI1001   0.0000
    66 H27         39.5141     5.6783    54.9935 H            1 0LI1001   0.0000
    67 H28         35.4592     5.8613    52.0282 H            1 0LI1001   0.0000
    68 H29         37.5488     6.7941    54.9722 H            1 0LI1001   0.0000
@<TRIPOS>BOND
     1    1   21       2
     2    1   22       1
     3    2   12       1
     4    2   13       1
     5    2   15       1
     6    3    4       1
     7    3   24       3
     8    4    5      ar
     9    4    8      ar
    10    5    6      ar
    11    5   26       1
    12    6    7      ar
    13    7   25      ar
    14    8   25      ar
    15    9   29       1
    16    9   30      ar
    17    9   32      ar
    18   10   30      ar
    19   10   31      ar
    20   11   31      ar
    21   11   32      ar
    22   11   33       1
    23   12   31       1
    24   13   14       1
    25   14   39       1
    26   15   37       1
    27   16   17       2
    28   16   21       1
    29   17   18       1
    30   18   19       2
    31   19   20       1
    32   20   21       1
    33   20   23       1
    34   22   23       2
    35   23   24       1
    36   25   27       1
    37   27   28       2
    38   27   29      am
    39   33   34       1
    40   33   35       1
    41   33   36       1
    42   37   39       1
    43   38   39       1
    44    6   40       1
    45    7   41       1
    46    8   42       1
    47   10   43       1
    48   12   44       1
    49   12   45       1
    50   13   46       1
    51   13   47       1
    52   14   48       1
    53   14   49       1
    54   15   50       1
    55   15   51       1
    56   16   52       1
    57   17   53       1
    58   18   54       1
    59   22   55       1
    60   26   56       1
    61   26   57       1
    62   26   58       1
    63   29   59       1
    64   30   60       1
    65   32   61       1
    66   37   62       1
    67   37   63       1
    68   38   64       1
    69   38   65       1
    70   38   66       1
    71    2   67       1
    72   39   68       1
@<TRIPOS>SUBSTRUCTURE
     1 0LI1001     1 GROUP             4 A     0LI     0 **** 0LI A1001
