@<TRIPOS>MOLECULE
4qvh_COA_2_ligand
   80    82     1     0     0
SMALL
NO_CHARGES


@<TRIPOS>ATOM
     1 N1A         91.7060    50.1460   171.3840 N.ar         1 COA602   0.0000
     2 C2A         92.6420    49.2200   171.6020 C.ar         1 COA602   0.0000
     3 N3A         92.4470    47.9500   172.0260 N.ar         1 COA602   0.0000
     4 C4A         91.1470    47.6170   172.3780 C.ar         1 COA602   0.0000
     5 C5A         90.0470    48.5450   172.1850 C.ar         1 COA602   0.0000
     6 C6A         90.4370    49.8830   171.7050 C.ar         1 COA602   0.0000
     7 N6A         89.5370    50.8230   171.5370 N.pl3        1 COA602   0.0000
     8 N7A         88.8810    47.9510   172.6080 N.2          1 COA602   0.0000
     9 C8A         89.2220    46.6820   173.0050 C.2          1 COA602   0.0000
    10 N9A         90.6080    46.5130   172.8940 N.pl3        1 COA602   0.0000
    11 C1B         91.3720    45.3320   173.2340 C.3          1 COA602   0.0000
    12 C2B         91.0560    44.9520   174.7040 C.3          1 COA602   0.0000
    13 O2B         92.2290    44.6710   175.4700 O.3          1 COA602   0.0000
    14 C3B         90.2210    43.6800   174.5520 C.3          1 COA602   0.0000
    15 O3B         90.3610    42.6780   175.5620 O.3          1 COA602   0.0000
    16 P3B         89.9070    42.9610   177.0950 P.3          1 COA602   0.0000
    17 O7A         90.0480    41.5820   177.6610 O.co2        1 COA602   0.0000
    18 O8A         90.7690    44.0180   177.6790 O.co2        1 COA602  -1.0000
    19 O9A         88.4570    43.4120   176.9020 O.co2        1 COA602  -1.0000
    20 C4B         90.7070    43.1010   173.2080 C.3          1 COA602   0.0000
    21 O4B         90.9980    44.2250   172.3970 O.3          1 COA602   0.0000
    22 C5B         89.7840    42.1460   172.5000 C.3          1 COA602   0.0000
    23 O5B         90.4520    41.7140   171.3220 O.3          1 COA602   0.0000
    24 P1A         90.0770    40.3320   170.6440 P.3          1 COA602   0.0000
    25 O1A         89.7840    39.3190   171.7000 O.co2        1 COA602   0.0000
    26 O2A         91.1420    40.0870   169.6520 O.co2        1 COA602  -1.0000
    27 O3A         88.6750    40.6730   169.9810 O.3          1 COA602   0.0000
    28 P2A         88.3770    41.1990   168.4650 P.3          1 COA602   0.0000
    29 O4A         89.1920    40.3840   167.4880 O.co2        1 COA602   0.0000
    30 O5A         86.9320    41.1290   168.2960 O.co2        1 COA602  -1.0000
    31 O6A         88.8760    42.7220   168.4550 O.3          1 COA602   0.0000
    32 CBP         87.9620    44.9550   168.5370 C.3          1 COA602   0.0000
    33 CCP         88.4940    43.7520   169.3290 C.3          1 COA602   0.0000
    34 CDP         87.6670    46.0600   169.5220 C.3          1 COA602   0.0000
    35 CEP         88.9690    45.3840   167.4590 C.3          1 COA602   0.0000
    36 CAP         86.7000    44.5320   167.7990 C.3          1 COA602   0.0000
    37 OAP         85.8550    43.9630   168.7600 O.3          1 COA602   0.0000
    38 C9P         85.9850    45.7200   167.2350 C.2          1 COA602   0.0000
    39 O9P         85.1940    46.2930   167.9570 O.2          1 COA602   0.0000
    40 N8P         86.2710    46.1200   166.0080 N.am         1 COA602   0.0000
    41 C7P         85.6740    47.2800   165.3810 C.3          1 COA602   0.0000
    42 C6P         86.7340    48.2070   164.7980 C.3          1 COA602   0.0000
    43 C5P         87.6250    47.5400   163.7590 C.2          1 COA602   0.0000
    44 O5P         88.0390    46.3650   163.9050 O.2          1 COA602   0.0000
    45 N4P         87.8200    48.3200   162.7230 N.am         1 COA602   0.0000
    46 C3P         88.6040    47.9650   161.5410 C.3          1 COA602   0.0000
    47 C2P         89.7930    48.8380   161.3350 C.3          1 COA602   0.0000
    48 S1P         90.4790    48.5790   159.6710 S.3          1 COA602   0.0000
    49 H2A         93.5889    49.4941   171.4340 H            1 COA602   0.0000
    50 H6A1        88.5808    50.6473   171.7710 H            1 COA602   0.0000
    51 H6A2        89.8073    51.7151   171.1750 H            1 COA602   0.0000
    52 H8A         88.5796    45.9853   173.3244 H            1 COA602   0.0000
    53 H1B         92.3493    45.5189   173.1338 H            1 COA602   0.0000
    54 H2B         90.5178    45.6720   175.1421 H            1 COA602   0.0000
    55 H7          91.9672    44.4330   176.4053 H            1 COA602   0.0000
    56 H3B         89.2561    43.9299   174.4707 H            1 COA602   0.0000
    57 H4B         91.5670    42.6202   173.3788 H            1 COA602   0.0000
    58 H5B1        88.9304    42.6084   172.2601 H            1 COA602   0.0000
    59 H5B2        89.5846    41.3622   173.0882 H            1 COA602   0.0000
    60 HCP1        89.2861    44.0370   169.8688 H            1 COA602   0.0000
    61 HCP2        87.7771    43.4167   169.9403 H            1 COA602   0.0000
    62 HDP1        87.3178    46.8588   169.0321 H            1 COA602   0.0000
    63 HDP2        86.9818    45.7464   170.1794 H            1 COA602   0.0000
    64 HDP3        88.5059    46.3069   170.0071 H            1 COA602   0.0000
    65 HEP1        88.6046    46.1673   166.9553 H            1 COA602   0.0000
    66 HEP2        89.8331    45.6393   167.8928 H            1 COA602   0.0000
    67 HEP3        89.1248    44.6246   166.8273 H            1 COA602   0.0000
    68 HAP         86.9142    43.8718   167.0791 H            1 COA602   0.0000
    69 H21         86.0347    42.9813   168.8225 H            1 COA602   0.0000
    70 H8P         86.9378    45.5911   165.4830 H            1 COA602   0.0000
    71 H7P1        85.1436    47.7819   166.0642 H            1 COA602   0.0000
    72 H7P2        85.0680    46.9763   164.6458 H            1 COA602   0.0000
    73 H6P1        87.3117    48.5356   165.5452 H            1 COA602   0.0000
    74 H6P2        86.2728    48.9827   164.3673 H            1 COA602   0.0000
    75 H4P         87.4002    49.2274   162.7429 H            1 COA602   0.0000
    76 H3P1        88.0146    48.0373   160.7364 H            1 COA602   0.0000
    77 H3P2        88.9177    47.0207   161.6407 H            1 COA602   0.0000
    78 H2P1        90.4889    48.6154   162.0178 H            1 COA602   0.0000
    79 H2P2        89.5217    49.7952   161.4354 H            1 COA602   0.0000
    80 H1P         91.2760    49.1694   159.5434 H            1 COA602   0.0000
@<TRIPOS>BOND
     1    1    2      ar
     2    1    6      ar
     3    2    3      ar
     4    3    4      ar
     5    4    5      ar
     6    4   10       1
     7    5    6      ar
     8    5    8       1
     9    6    7       1
    10    8    9       2
    11    9   10       1
    12   10   11       1
    13   11   12       1
    14   11   21       1
    15   12   13       1
    16   12   14       1
    17   14   15       1
    18   14   20       1
    19   15   16       1
    20   16   17      ar
    21   16   18      ar
    22   16   19      ar
    23   20   21       1
    24   20   22       1
    25   22   23       1
    26   23   24       1
    27   24   25      ar
    28   24   26      ar
    29   24   27       1
    30   27   28       1
    31   28   29      ar
    32   28   30      ar
    33   28   31       1
    34   31   33       1
    35   32   33       1
    36   32   34       1
    37   32   35       1
    38   32   36       1
    39   36   37       1
    40   36   38       1
    41   38   39       2
    42   38   40      am
    43   40   41       1
    44   41   42       1
    45   42   43       1
    46   43   44       2
    47   43   45      am
    48   45   46       1
    49   46   47       1
    50   47   48       1
    51    2   49       1
    52    7   50       1
    53    7   51       1
    54    9   52       1
    55   11   53       1
    56   12   54       1
    57   13   55       1
    58   14   56       1
    59   48   80       1
    60   47   79       1
    61   20   57       1
    62   22   58       1
    63   22   59       1
    64   47   78       1
    65   46   77       1
    66   33   60       1
    67   33   61       1
    68   34   62       1
    69   34   63       1
    70   34   64       1
    71   35   65       1
    72   35   66       1
    73   35   67       1
    74   36   68       1
    75   37   69       1
    76   40   70       1
    77   41   71       1
    78   41   72       1
    79   42   73       1
    80   42   74       1
    81   45   75       1
    82   46   76       1
@<TRIPOS>SUBSTRUCTURE
     1 COA602      1 GROUP             4 B     COA     0 **** COA B 602
