@<TRIPOS>MOLECULE
2q4b_NAP_2_ligand
   74    78     1     0     0
SMALL
NO_CHARGES


@<TRIPOS>ATOM
     1 PA          60.8460    18.2590    65.1630 P.3          1 NAP401   0.0000
     2 O1A         60.5310    18.0350    66.4520 O.co2        1 NAP401   0.0000
     3 O2A         61.5610    17.0160    64.8670 O.co2        1 NAP401  -1.0000
     4 O5B         62.1210    19.1920    64.7820 O.3          1 NAP401   0.0000
     5 C5B         62.6390    19.8690    63.5880 C.3          1 NAP401   0.0000
     6 C4B         63.8600    19.8970    64.2600 C.3          1 NAP401   0.0000
     7 O4B         64.0150    21.3890    63.4100 O.3          1 NAP401   0.0000
     8 C3B         65.1970    19.9700    64.8190 C.3          1 NAP401   0.0000
     9 O3B         65.9650    19.0340    63.8850 O.3          1 NAP401   0.0000
    10 C2B         65.7280    21.3240    64.9410 C.3          1 NAP401   0.0000
    11 O2B         67.0350    21.1690    65.3480 O.3          1 NAP401   0.0000
    12 C1B         65.4490    21.9320    63.6110 C.3          1 NAP401   0.0000
    13 N9A         65.7380    23.3780    63.8560 N.pl3        1 NAP401   0.0000
    14 C8A         65.1480    24.2780    64.7830 C.2          1 NAP401   0.0000
    15 N7A         65.6560    25.4800    64.7500 N.2          1 NAP401   1.0000
    16 C5A         66.6290    25.3950    63.7880 C.ar         1 NAP401   0.0000
    17 C6A         67.5450    26.3970    63.2780 C.ar         1 NAP401   0.0000
    18 N6A         67.5450    27.6940    63.7700 N.pl3        1 NAP401   0.0000
    19 N1A         68.4410    26.0180    62.2770 N.ar         1 NAP401   0.0000
    20 C2A         68.4530    24.7240    61.8070 C.ar         1 NAP401   0.0000
    21 N3A         67.5810    23.7030    62.2380 N.ar         1 NAP401   0.0000
    22 C4A         66.6860    24.1160    63.2450 C.ar         1 NAP401   0.0000
    23 O3          59.9400    17.8810    63.8430 O.3          1 NAP401   0.0000
    24 PN          59.0420    16.6270    63.4120 P.3          1 NAP401   0.0000
    25 O1N         58.3490    16.2840    64.6700 O.co2        1 NAP401   0.0000
    26 O2N         59.9300    15.5950    62.7270 O.co2        1 NAP401  -1.0000
    27 O5D         58.0460    17.0630    62.2140 O.3          1 NAP401   0.0000
    28 C5D         58.3910    18.0410    61.2960 C.3          1 NAP401   0.0000
    29 C4D         57.4270    19.1730    61.2360 C.3          1 NAP401   0.0000
    30 O4D         56.0470    18.8740    61.2690 O.3          1 NAP401   0.0000
    31 C3D         57.5380    20.3530    62.2480 C.3          1 NAP401   0.0000
    32 O3D         57.4340    21.6270    61.6080 O.3          1 NAP401   0.0000
    33 C2D         56.4250    20.0090    63.3270 C.3          1 NAP401   0.0000
    34 O2D         56.0500    21.1380    64.1370 O.3          1 NAP401   0.0000
    35 C1D         55.3500    19.4480    62.3830 C.3          1 NAP401   0.0000
    36 N1N         54.3210    18.5050    62.8820 N.ar         1 NAP401   1.0000
    37 C2N         54.5270    17.7320    64.0200 C.ar         1 NAP401   0.0000
    38 C3N         53.5280    16.8310    64.4610 C.ar         1 NAP401   0.0000
    39 C7N         53.6900    15.9080    65.6930 C.2          1 NAP401   0.0000
    40 O7N         52.7670    15.0620    65.9120 O.2          1 NAP401   0.0000
    41 N7N         54.8910    16.0870    66.3910 N.am         1 NAP401   0.0000
    42 C4N         52.2470    16.7490    63.6880 C.ar         1 NAP401   0.0000
    43 C5N         52.0750    17.5240    62.5560 C.ar         1 NAP401   0.0000
    44 C6N         53.0930    18.3970    62.1540 C.ar         1 NAP401   0.0000
    45 P2B         67.5400    20.2190    66.6710 P.3          1 NAP401   0.0000
    46 O1X         67.6160    18.7910    66.2580 O.co2        1 NAP401   0.0000
    47 O2X         68.8420    20.9250    66.8890 O.co2        1 NAP401  -1.0000
    48 O3X         66.4800    20.3880    67.7850 O.co2        1 NAP401  -1.0000
    49 H5B1        62.2375    20.7659    63.4026 H            1 NAP401   0.0000
    50 H5B2        62.6285    19.3199    62.7523 H            1 NAP401   0.0000
    51 H4B         63.4575    20.3459    65.0578 H            1 NAP401   0.0000
    52 H3B         65.1786    19.5576    65.7298 H            1 NAP401   0.0000
    53 H5          66.3572    18.2822    64.4151 H            1 NAP401   0.0000
    54 H2B         65.2178    21.8181    65.6450 H            1 NAP401   0.0000
    55 H1B         66.0668    21.5615    62.9174 H            1 NAP401   0.0000
    56 H8A         64.4103    24.0147    65.4046 H            1 NAP401   0.0000
    57 H6A1        68.1860    28.3680    63.4028 H            1 NAP401   0.0000
    58 H6A2        66.9040    27.9549    64.4918 H            1 NAP401   0.0000
    59 H2A         69.1298    24.4910    61.1087 H            1 NAP401   0.0000
    60 H5D1        58.4404    17.6202    60.3902 H            1 NAP401   0.0000
    61 H5D2        59.2891    18.4041    61.5443 H            1 NAP401   0.0000
    62 H4D         57.5772    19.5898    60.3395 H            1 NAP401   0.0000
    63 H3D         58.4318    20.2994    62.6933 H            1 NAP401   0.0000
    64 H16         58.1691    21.7239    60.9370 H            1 NAP401   0.0000
    65 H2D         56.7574    19.2753    63.9196 H            1 NAP401   0.0000
    66 H18         56.8308    21.7560    64.2294 H            1 NAP401   0.0000
    67 H1D         54.8536    20.2385    62.0243 H            1 NAP401   0.0000
    68 H2N         55.3842    17.8130    64.5286 H            1 NAP401   0.0000
    69 H7N1        55.0851    15.5349    67.2019 H            1 NAP401   0.0000
    70 H7N2        55.5544    16.7669    66.0785 H            1 NAP401   0.0000
    71 H4N         51.5179    16.1349    63.9903 H            1 NAP401   0.0000
    72 H5N         51.2284    17.4613    62.0275 H            1 NAP401   0.0000
    73 H6N         52.9590    18.9592    61.3379 H            1 NAP401   0.0000
    74 H7A         65.3965    26.2755    65.2975 H            1 NAP401   0.0000
@<TRIPOS>BOND
     1    1    2      ar
     2    1    3      ar
     3    1    4       1
     4    1   23       1
     5    4    5       1
     6    5    6       1
     7    6    7       1
     8    6    8       1
     9    7   12       1
    10    8    9       1
    11    8   10       1
    12   10   11       1
    13   10   12       1
    14   11   45       1
    15   12   13       1
    16   13   14       1
    17   13   22       1
    18   14   15       2
    19   15   16       1
    20   16   17      ar
    21   16   22      ar
    22   17   18       1
    23   17   19      ar
    24   19   20      ar
    25   20   21      ar
    26   21   22      ar
    27   23   24       1
    28   24   25      ar
    29   24   26      ar
    30   24   27       1
    31   27   28       1
    32   28   29       1
    33   29   30       1
    34   29   31       1
    35   30   35       1
    36   31   32       1
    37   31   33       1
    38   33   34       1
    39   33   35       1
    40   35   36       1
    41   36   37      ar
    42   36   44      ar
    43   37   38      ar
    44   38   39       1
    45   38   42      ar
    46   39   40       2
    47   39   41      am
    48   42   43      ar
    49   43   44      ar
    50   45   46      ar
    51   45   47      ar
    52   45   48      ar
    53   43   72       1
    54    5   49       1
    55    5   50       1
    56    6   51       1
    57    8   52       1
    58    9   53       1
    59   10   54       1
    60   12   55       1
    61   14   56       1
    62   18   57       1
    63   18   58       1
    64   20   59       1
    65   44   73       1
    66   28   60       1
    67   28   61       1
    68   29   62       1
    69   31   63       1
    70   32   64       1
    71   33   65       1
    72   34   66       1
    73   35   67       1
    74   37   68       1
    75   41   69       1
    76   41   70       1
    77   42   71       1
    78   15   74       1
@<TRIPOS>SUBSTRUCTURE
     1 NAP401      1 GROUP             4 B     NAP     0 **** NAP B 401
