@<TRIPOS>MOLECULE
1ikg_REX_1_ligand
   51    50     1     0     0
SMALL
NO_CHARGES


@<TRIPOS>ATOM
     1 C1          19.6400   -15.8610    37.7820 C.3          1 REX400   0.0000
     2 C2          21.1050   -16.3750    37.8060 C.3          1 REX400   0.0000
     3 C3          19.5550   -14.4690    38.4250 C.3          1 REX400   0.0000
     4 C4          21.9990   -15.4960    36.9030 C.3          1 REX400   0.0000
     5 C5          18.1170   -14.0650    38.7300 C.2          1 REX400   0.0000
     6 N1          17.5710   -13.2470    37.7530 N.am         1 REX400   0.0000
     7 O1          17.5310   -14.4050    39.7350 O.2          1 REX400   0.0000
     8 C6          16.3690   -12.4750    37.9800 C.3          1 REX400   0.0000
     9 C7          16.7640   -11.0270    38.1580 C.2          1 REX400   0.0000
    10 C8          15.4210   -12.6620    36.7960 C.3          1 REX400   0.0000
    11 O2          16.8870   -10.2610    37.2340 O.2          1 REX400   0.0000
    12 N2          16.9890   -10.6550    39.4850 N.am         1 REX400   0.0000
    13 C9          17.4090    -9.2710    39.7970 C.3          1 REX400   0.0000
    14 C10         23.5090   -15.9370    36.8500 C.3          1 REX400   0.0000
    15 C11         18.9000    -9.2650    40.1230 C.3          1 REX400   0.0000
    16 C12         16.6390    -8.7020    40.9830 C.2          1 REX400   0.0000
    17 O3          16.2440    -9.4990    41.8580 O.co2        1 REX400   0.0000
    18 O4          16.4730    -7.4520    40.9970 O.co2        1 REX400  -1.0000
    19 N3          24.1290   -16.2320    38.1470 N.am         1 REX400   0.0000
    20 C13         24.2650   -14.8070    36.0980 C.2          1 REX400   0.0000
    21 C14         24.6700   -17.5280    38.3270 C.2          1 REX400   0.0000
    22 C15         25.3070   -17.7400    39.6760 C.3          1 REX400   0.0000
    23 O5          24.6490   -18.4060    37.4890 O.2          1 REX400   0.0000
    24 N4          25.8650   -19.0970    39.7770 N.4          1 REX400   1.0000
    25 O6          24.0870   -14.7650    34.8510 O.co2        1 REX400   0.0000
    26 O7          24.9840   -13.9950    36.7860 O.co2        1 REX400  -1.0000
    27 H1          19.0589   -16.4959    38.2911 H            1 REX400   0.0000
    28 H2          19.3245   -15.8069    36.8346 H            1 REX400   0.0000
    29 H3          21.1287   -17.3183    37.4750 H            1 REX400   0.0000
    30 H4          21.4504   -16.3421    38.7439 H            1 REX400   0.0000
    31 H5          19.9519   -13.7992    37.7975 H            1 REX400   0.0000
    32 H6          20.0760   -14.4757    39.2785 H            1 REX400   0.0000
    33 H7          21.9599   -14.5569    37.2443 H            1 REX400   0.0000
    34 H8          21.6315   -15.5284    35.9735 H            1 REX400   0.0000
    35 H9          18.0226   -13.1888    36.8627 H            1 REX400   0.0000
    36 H10         15.9222   -12.7992    38.8138 H            1 REX400   0.0000
    37 H11         14.5882   -12.1299    36.9485 H            1 REX400   0.0000
    38 H12         15.8681   -12.3485    35.9583 H            1 REX400   0.0000
    39 H13         15.1864   -13.6300    36.7065 H            1 REX400   0.0000
    40 H14         16.8668   -11.3209    40.2210 H            1 REX400   0.0000
    41 H15         17.2481    -8.6934    38.9967 H            1 REX400   0.0000
    42 H16         23.5647   -16.7644    36.2911 H            1 REX400   0.0000
    43 H17         19.1911    -8.3321    40.3350 H            1 REX400   0.0000
    44 H18         19.0711    -9.8550    40.9120 H            1 REX400   0.0000
    45 H19         19.4148    -9.6039    39.3355 H            1 REX400   0.0000
    46 H20         24.1678   -15.5461    38.8736 H            1 REX400   0.0000
    47 H21         24.6169   -17.6145    40.3888 H            1 REX400   0.0000
    48 H22         26.0410   -17.0726    39.8014 H            1 REX400   0.0000
    49 H23         26.2828   -19.2194    40.6772 H            1 REX400   0.0000
    50 H24         25.1337   -19.7681    39.6549 H            1 REX400   0.0000
    51 H25         26.5578   -19.2262    39.0676 H            1 REX400   0.0000
@<TRIPOS>BOND
     1    1    2       1
     2    1    3       1
     3    2    4       1
     4    3    5       1
     5    4   14       1
     6    5    6      am
     7    5    7       2
     8    6    8       1
     9    8    9       1
    10    8   10       1
    11    9   11       2
    12    9   12      am
    13   12   13       1
    14   13   15       1
    15   13   16       1
    16   14   19       1
    17   14   20       1
    18   16   17      ar
    19   16   18      ar
    20   19   21      am
    21   20   25      ar
    22   20   26      ar
    23   21   22       1
    24   21   23       2
    25   22   24       1
    26    1   27       1
    27    1   28       1
    28    2   29       1
    29    2   30       1
    30    3   31       1
    31    3   32       1
    32    4   33       1
    33    4   34       1
    34    6   35       1
    35    8   36       1
    36   10   37       1
    37   10   38       1
    38   10   39       1
    39   12   40       1
    40   13   41       1
    41   14   42       1
    42   15   43       1
    43   15   44       1
    44   15   45       1
    45   24   51       1
    46   19   46       1
    47   22   47       1
    48   22   48       1
    49   24   49       1
    50   24   50       1
@<TRIPOS>SUBSTRUCTURE
     1 REX400      1 GROUP             4 A     REX     0 **** REX A 400
