@<TRIPOS>MOLECULE
3qv6_QV6_2_ligand
   69    73     1     0     0
SMALL
NO_CHARGES


@<TRIPOS>ATOM
     1 CAA         27.1720   -40.4560   -48.6930 C.3          1 QV6500   0.0000
     2 CAB         24.0470   -47.9080   -45.7530 C.3          1 QV6500   0.0000
     3 CAC         22.6550   -39.6780   -50.7410 C.3          1 QV6500   0.0000
     4 CAD         20.2970   -47.2530   -42.5280 C.3          1 QV6500   0.0000
     5 CAE         24.8000   -44.8450   -41.7540 C.3          1 QV6500   0.0000
     6 OAF         28.8760   -44.3010   -48.7070 O.2          1 QV6500   0.0000
     7 OAG         27.9240   -46.9560   -44.2610 O.2          1 QV6500   0.0000
     8 OAH         21.7240   -44.1160   -50.2360 O.co2        1 QV6500   0.0000
     9 OAI         20.7680   -41.8730   -50.3150 O.co2        1 QV6500   0.0000
    10 OAJ         20.4790   -45.5530   -40.4570 O.co2        1 QV6500   0.0000
    11 OAK         22.7120   -45.7530   -39.4600 O.co2        1 QV6500   0.0000
    12 OAL         21.9450   -42.7640   -52.1970 O.co2        1 QV6500  -1.0000
    13 OAM         22.0860   -43.8500   -40.7560 O.co2        1 QV6500  -1.0000
    14 CAN         31.8570   -46.6950   -47.2090 C.ar         1 QV6500   0.0000
    15 CAO         31.6090   -47.4030   -46.0330 C.ar         1 QV6500   0.0000
    16 CAP         25.1620   -43.8640   -46.8970 C.ar         1 QV6500   0.0000
    17 CAQ         24.9230   -44.5670   -45.7280 C.ar         1 QV6500   0.0000
    18 CAR         30.8710   -45.8690   -47.7520 C.ar         1 QV6500   0.0000
    19 CAS         30.3730   -47.2810   -45.3990 C.ar         1 QV6500   0.0000
    20 CAT         24.8890   -40.1880   -49.7130 C.ar         1 QV6500   0.0000
    21 CAU         22.2580   -47.4800   -44.0490 C.ar         1 QV6500   0.0000
    22 CAV         24.4130   -42.9290   -49.6740 C.ar         1 QV6500   0.0000
    23 NAW         26.5620   -43.2640   -48.6960 N.pl3        1 QV6500   0.0000
    24 NAX         25.6430   -46.0720   -44.0620 N.pl3        1 QV6500   0.0000
    25 CAY         25.8590   -41.0520   -49.2100 C.ar         1 QV6500   0.0000
    26 CAZ         23.5620   -47.2260   -44.4620 C.ar         1 QV6500   0.0000
    27 CBA         23.6820   -40.6810   -50.1970 C.ar         1 QV6500   0.0000
    28 CBB         21.7460   -46.9010   -42.8950 C.ar         1 QV6500   0.0000
    29 CBC         23.8700   -45.7760   -42.5470 C.ar         1 QV6500   0.0000
    30 CBD         25.6270   -42.4320   -49.1840 C.ar         1 QV6500   0.0000
    31 CBE         26.3850   -43.9610   -47.5600 C.ar         1 QV6500   0.0000
    32 CBF         25.9080   -45.3900   -45.1890 C.ar         1 QV6500   0.0000
    33 CBG         24.3790   -46.3640   -43.7070 C.ar         1 QV6500   0.0000
    34 CBH         23.4370   -42.0600   -50.1730 C.ar         1 QV6500   0.0000
    35 CBI         22.5510   -46.0370   -42.1270 C.ar         1 QV6500   0.0000
    36 CBJ         28.6390   -44.9210   -47.6670 C.2          1 QV6500   0.0000
    37 CBK         28.1430   -46.3310   -45.3020 C.2          1 QV6500   0.0000
    38 CBL         29.6300   -45.7450   -47.1210 C.ar         1 QV6500   0.0000
    39 CBM         29.3810   -46.4530   -45.9390 C.ar         1 QV6500   0.0000
    40 CBN         27.3930   -44.7900   -47.0280 C.ar         1 QV6500   0.0000
    41 CBO         27.1480   -45.5050   -45.8380 C.ar         1 QV6500   0.0000
    42 SBP         21.9160   -42.7260   -50.7690 S.o2         1 QV6500   0.0000
    43 SBQ         21.9370   -45.2640   -40.6450 S.o2         1 QV6500   0.0000
    44 HAA1        27.7658   -41.1911   -48.3659 H            1 QV6500   0.0000
    45 HAA2        27.6288   -39.9631   -49.4336 H            1 QV6500   0.0000
    46 HAA3        26.9786   -39.8247   -47.9420 H            1 QV6500   0.0000
    47 HAB1        24.9939   -47.6428   -45.9346 H            1 QV6500   0.0000
    48 HAB2        23.9936   -48.9008   -45.6458 H            1 QV6500   0.0000
    49 HAB3        23.4687   -47.6237   -46.5177 H            1 QV6500   0.0000
    50 HAC1        21.8417   -40.1695   -51.0523 H            1 QV6500   0.0000
    51 HAC2        22.4002   -39.0364   -50.0176 H            1 QV6500   0.0000
    52 HAC3        23.0542   -39.1748   -51.5075 H            1 QV6500   0.0000
    53 HAD1        20.0424   -46.7799   -41.6845 H            1 QV6500   0.0000
    54 HAD2        19.6871   -46.9676   -43.2673 H            1 QV6500   0.0000
    55 HAD3        20.2178   -48.2407   -42.3931 H            1 QV6500   0.0000
    56 HAE1        24.3158   -44.4937   -40.9527 H            1 QV6500   0.0000
    57 HAE2        25.6083   -45.3542   -41.4583 H            1 QV6500   0.0000
    58 HAE3        25.0813   -44.0811   -42.3349 H            1 QV6500   0.0000
    59 HAN         32.7433   -46.7793   -47.6643 H            1 QV6500   0.0000
    60 HAO         32.3151   -47.9960   -45.6459 H            1 QV6500   0.0000
    61 HAP         24.4450   -43.2765   -47.2723 H            1 QV6500   0.0000
    62 HAQ         24.0386   -44.4830   -45.2688 H            1 QV6500   0.0000
    63 HAR         31.0534   -45.3641   -48.5957 H            1 QV6500   0.0000
    64 HAS         30.1942   -47.7869   -44.5551 H            1 QV6500   0.0000
    65 HAT         25.0623   -39.2032   -49.7262 H            1 QV6500   0.0000
    66 HAU         21.6800   -48.0893   -44.5918 H            1 QV6500   0.0000
    67 HAV         24.2422   -43.9143   -49.6671 H            1 QV6500   0.0000
    68 HAW         27.4215   -43.3688   -49.1962 H            1 QV6500   0.0000
    69 HAX         26.3985   -46.3675   -43.4772 H            1 QV6500   0.0000
@<TRIPOS>BOND
     1    1   25       1
     2    2   26       1
     3    3   27       1
     4    4   28       1
     5    5   29       1
     6    6   36       2
     7    7   37       2
     8    8   42      ar
     9    9   42      ar
    10   10   43      ar
    11   11   43      ar
    12   12   42      ar
    13   13   43      ar
    14   14   15      ar
    15   14   18      ar
    16   15   19      ar
    17   16   17      ar
    18   16   31      ar
    19   17   32      ar
    20   18   38      ar
    21   19   39      ar
    22   20   25      ar
    23   20   27      ar
    24   21   26      ar
    25   21   28      ar
    26   22   30      ar
    27   22   34      ar
    28   23   30       1
    29   23   31       1
    30   24   32       1
    31   24   33       1
    32   25   30      ar
    33   26   33      ar
    34   27   34      ar
    35   28   35      ar
    36   29   33      ar
    37   29   35      ar
    38   31   40      ar
    39   32   41      ar
    40   34   42       1
    41   35   43       1
    42   36   38       1
    43   36   40       1
    44   37   39       1
    45   37   41       1
    46   38   39      ar
    47   40   41      ar
    48    1   44       1
    49    1   45       1
    50    1   46       1
    51    2   47       1
    52    2   48       1
    53    2   49       1
    54    3   50       1
    55    3   51       1
    56    3   52       1
    57    4   53       1
    58    4   54       1
    59    4   55       1
    60    5   56       1
    61    5   57       1
    62    5   58       1
    63   24   69       1
    64   23   68       1
    65   14   59       1
    66   15   60       1
    67   16   61       1
    68   17   62       1
    69   18   63       1
    70   19   64       1
    71   20   65       1
    72   21   66       1
    73   22   67       1
@<TRIPOS>SUBSTRUCTURE
     1 QV6500      1 GROUP             4 A     QV6     0 **** QV6 A 500
