@<TRIPOS>MOLECULE
3b3j_BEN_4_ligand
   18    18     1     0     0
SMALL
NO_CHARGES


@<TRIPOS>ATOM
     1 C1          46.7080    13.7040    59.4830 C.ar         1 BEN4001   0.0000
     2 C2          47.0830    14.2470    60.7130 C.ar         1 BEN4001   0.0000
     3 C3          48.3610    14.0280    61.2230 C.ar         1 BEN4001   0.0000
     4 C4          49.2710    13.2640    60.4980 C.ar         1 BEN4001   0.0000
     5 C5          48.9050    12.7130    59.2660 C.ar         1 BEN4001   0.0000
     6 C6          47.6270    12.9320    58.7590 C.ar         1 BEN4001   0.0000
     7 C           45.3250    13.9140    58.9090 C.cat        1 BEN4001   0.0000
     8 N1          44.4000    14.5440    59.5100 N.pl3        1 BEN4001   1.0000
     9 N2          45.0690    13.3870    57.7040 N.pl3        1 BEN4001   0.0000
    10 H1          46.4293    14.7975    61.2322 H            1 BEN4001   0.0000
    11 H2          48.6232    14.4179    62.1057 H            1 BEN4001   0.0000
    12 H3          50.1903    13.1085    60.8596 H            1 BEN4001   0.0000
    13 H4          49.5606    12.1621    58.7496 H            1 BEN4001   0.0000
    14 H5          47.3646    12.5384    57.8780 H            1 BEN4001   0.0000
    15 H6          43.5045    14.6498    59.0777 H            1 BEN4001   0.0000
    16 H7          44.5673    14.9341    60.4154 H            1 BEN4001   0.0000
    17 H8          44.1666    13.5031    57.2889 H            1 BEN4001   0.0000
    18 H9          45.7803    12.8775    57.2197 H            1 BEN4001   0.0000
@<TRIPOS>BOND
     1    1    2      ar
     2    1    6      ar
     3    1    7       1
     4    2    3      ar
     5    3    4      ar
     6    4    5      ar
     7    5    6      ar
     8    7    8      ar
     9    7    9      ar
    10    2   10       1
    11    3   11       1
    12    4   12       1
    13    5   13       1
    14    6   14       1
    15    8   15       1
    16    8   16       1
    17    9   17       1
    18    9   18       1
@<TRIPOS>SUBSTRUCTURE
     1 BEN4001     1 GROUP             4 A     BEN     0 **** BEN A4001
