@<TRIPOS>MOLECULE
3u8f_FGM_1_ligand
   59    58     1     0     0
SMALL
NO_CHARGES


@<TRIPOS>ATOM
     1 CBU        -11.1470    21.8580     8.7050 C.3          1 FGM3945   0.0000
     2 CBV        -12.1970    20.7710     8.6490 C.3          1 FGM3945   0.0000
     3 CBW        -12.6350    20.5070     7.2130 C.3          1 FGM3945   0.0000
     4 CBX        -11.5870    21.0020     6.2230 C.3          1 FGM3945   0.0000
     5 CBY        -11.9910    22.3450     5.6260 C.3          1 FGM3945   0.0000
     6 CBZ        -11.1930    22.6430     4.3620 C.3          1 FGM3945   0.0000
     7 CCA         -9.7870    22.0620     4.4550 C.3          1 FGM3945   0.0000
     8 CCB         -9.5310    21.0710     3.3260 C.3          1 FGM3945   0.0000
     9 CCC         -9.1140    21.7910     2.0500 C.3          1 FGM3945   0.0000
    10 CCD         -7.7120    21.3750     1.6210 C.3          1 FGM3945   0.0000
    11 CCE         -6.7700    21.3160     2.8180 C.3          1 FGM3945   0.0000
    12 OCF         -6.1880    20.0110     2.9040 O.3          1 FGM3945   0.0000
    13 CCG         -5.6640    22.3580     2.6950 C.3          1 FGM3945   0.0000
    14 CCH         -4.6110    22.1680     3.7790 C.3          1 FGM3945   0.0000
    15 CCI         -5.1760    21.3860     4.9590 C.3          1 FGM3945   0.0000
    16 CCJ         -5.6390    22.3250     6.0660 C.3          1 FGM3945   0.0000
    17 CCK         -6.5340    21.5970     7.0620 C.3          1 FGM3945   0.0000
    18 CCL         -5.7330    21.1150     8.2650 C.3          1 FGM3945   0.0000
    19 CCM         -6.4500    21.4490     9.5680 C.3          1 FGM3945   0.0000
    20 CCQ         -4.6760    22.4900     1.5980 C.2          1 FGM3945   0.0000
    21 OCR         -5.1540    21.9580     0.5740 O.co2        1 FGM3945   0.0000
    22 OCS         -3.5410    23.0120     1.6290 O.co2        1 FGM3945  -1.0000
    23 HBU1       -10.8770    22.0120     9.6555 H            1 FGM3945   0.0000
    24 HBU2       -10.3482    21.5776     8.1728 H            1 FGM3945   0.0000
    25 HBU3       -11.5215    22.7032     8.3238 H            1 FGM3945   0.0000
    26 HBV1       -12.9912    21.0557     9.1859 H            1 FGM3945   0.0000
    27 HBV2       -11.8178    19.9300     9.0350 H            1 FGM3945   0.0000
    28 HBW1       -13.4976    20.9829     7.0414 H            1 FGM3945   0.0000
    29 HBW2       -12.7658    19.5237     7.0865 H            1 FGM3945   0.0000
    30 HBX1       -11.4908    20.3324     5.4865 H            1 FGM3945   0.0000
    31 HBX2       -10.7123    21.1045     6.6967 H            1 FGM3945   0.0000
    32 HBY1       -11.8208    23.0660     6.2978 H            1 FGM3945   0.0000
    33 HBY2       -12.9649    22.3228     5.4003 H            1 FGM3945   0.0000
    34 HBZ1       -11.1303    23.6336     4.2406 H            1 FGM3945   0.0000
    35 HBZ2       -11.6622    22.2400     3.5762 H            1 FGM3945   0.0000
    36 HCA1        -9.6843    21.5926     5.3320 H            1 FGM3945   0.0000
    37 HCA2        -9.1211    22.8056     4.3949 H            1 FGM3945   0.0000
    38 HCB1       -10.3679    20.5526     3.1501 H            1 FGM3945   0.0000
    39 HCB2        -8.8020    20.4440     3.6006 H            1 FGM3945   0.0000
    40 HCC1        -9.1270    22.7777     2.2122 H            1 FGM3945   0.0000
    41 HCC2        -9.7598    21.5645     1.3208 H            1 FGM3945   0.0000
    42 HCD1        -7.3612    22.0394     0.9611 H            1 FGM3945   0.0000
    43 HCD2        -7.7551    20.4718     1.1938 H            1 FGM3945   0.0000
    44 HCE         -7.2927    21.4941     3.6517 H            1 FGM3945   0.0000
    45 HCF         -6.7661    19.4249     3.4717 H            1 FGM3945   0.0000
    46 HCG         -6.0804    23.2564     2.8344 H            1 FGM3945   0.0000
    47 HCH1        -4.3045    23.0649     4.0978 H            1 FGM3945   0.0000
    48 HCH2        -3.8347    21.6670     3.3964 H            1 FGM3945   0.0000
    49 HCI1        -4.4666    20.7804     5.3195 H            1 FGM3945   0.0000
    50 HCI2        -5.9535    20.8400     4.6471 H            1 FGM3945   0.0000
    51 HCJ1        -6.1504    23.0822     5.6597 H            1 FGM3945   0.0000
    52 HCJ2        -4.8387    22.6832     6.5468 H            1 FGM3945   0.0000
    53 HCK1        -6.9522    20.8088     6.6105 H            1 FGM3945   0.0000
    54 HCK2        -7.2503    22.2208     7.3747 H            1 FGM3945   0.0000
    55 HCL1        -4.8375    21.5600     8.2612 H            1 FGM3945   0.0000
    56 HCL2        -5.6132    20.1242     8.2024 H            1 FGM3945   0.0000
    57 HCM1        -5.9056    21.1232    10.3410 H            1 FGM3945   0.0000
    58 HCM2        -6.5695    22.4393     9.6383 H            1 FGM3945   0.0000
    59 HCM3        -7.3452    21.0035     9.5795 H            1 FGM3945   0.0000
@<TRIPOS>BOND
     1    1    2       1
     2    2    3       1
     3    3    4       1
     4    4    5       1
     5    5    6       1
     6    6    7       1
     7    7    8       1
     8    8    9       1
     9    9   10       1
    10   10   11       1
    11   11   12       1
    12   11   13       1
    13   13   14       1
    14   13   20       1
    15   14   15       1
    16   15   16       1
    17   16   17       1
    18   17   18       1
    19   18   19       1
    20   20   21      ar
    21   20   22      ar
    22    1   23       1
    23    1   24       1
    24    1   25       1
    25    2   26       1
    26    2   27       1
    27    3   28       1
    28    3   29       1
    29    4   30       1
    30    4   31       1
    31    5   32       1
    32    5   33       1
    33    6   34       1
    34    6   35       1
    35    7   36       1
    36    7   37       1
    37    8   38       1
    38    8   39       1
    39    9   40       1
    40    9   41       1
    41   10   42       1
    42   10   43       1
    43   11   44       1
    44   12   45       1
    45   13   46       1
    46   14   47       1
    47   14   48       1
    48   15   49       1
    49   15   50       1
    50   16   51       1
    51   16   52       1
    52   17   53       1
    53   17   54       1
    54   18   55       1
    55   18   56       1
    56   19   57       1
    57   19   58       1
    58   19   59       1
@<TRIPOS>SUBSTRUCTURE
     1 FGM3945     1 GROUP             4 A     FGM     0 **** FGM A3945
