@<TRIPOS>MOLECULE
2nua_COA_1_ligand
   80    82     1     0     0
SMALL
NO_CHARGES


@<TRIPOS>ATOM
     1 N1A         30.3510    61.4170    47.8170 N.ar         1 COA1300   0.0000
     2 C2A         29.6300    62.5130    48.0640 C.ar         1 COA1300   0.0000
     3 N3A         28.4400    62.6190    48.6390 N.ar         1 COA1300   0.0000
     4 C4A         27.9690    61.4080    48.9860 C.ar         1 COA1300   0.0000
     5 C5A         28.5810    60.1920    48.7900 C.ar         1 COA1300   0.0000
     6 C6A         29.8470    60.2140    48.1780 C.ar         1 COA1300   0.0000
     7 N6A         30.5790    59.1210    47.9450 N.pl3        1 COA1300   0.0000
     8 N7A         27.7870    59.1610    49.2760 N.2          1 COA1300   0.0000
     9 C8A         26.7360    59.7760    49.7630 C.2          1 COA1300   0.0000
    10 N9A         26.8000    61.1370    49.6490 N.pl3        1 COA1300   0.0000
    11 C1B         25.9230    62.1900    50.1400 C.3          1 COA1300   0.0000
    12 C2B         24.4550    62.3140    49.7290 C.3          1 COA1300   0.0000
    13 O2B         24.3350    63.4610    48.9220 O.3          1 COA1300   0.0000
    14 C3B         23.7520    62.5370    51.0710 C.3          1 COA1300   0.0000
    15 O3B         22.8200    63.6300    50.9750 O.3          1 COA1300   0.0000
    16 P3B         21.6830    63.6510    49.8220 P.3          1 COA1300   0.0000
    17 O7A         22.0150    64.8580    48.9610 O.co2        1 COA1300   0.0000
    18 O8A         21.7060    62.3160    49.0810 O.co2        1 COA1300  -1.0000
    19 O9A         20.4210    63.8510    50.6380 O.co2        1 COA1300  -1.0000
    20 C4B         24.8800    62.9630    52.0100 C.3          1 COA1300   0.0000
    21 O4B         26.0200    62.2530    51.5270 O.3          1 COA1300   0.0000
    22 C5B         24.7130    62.6230    53.4670 C.3          1 COA1300   0.0000
    23 O5B         23.6830    63.4120    54.0300 O.3          1 COA1300   0.0000
    24 P1A         22.7400    62.8220    55.1590 P.3          1 COA1300   0.0000
    25 O1A         21.7950    63.8960    55.5310 O.co2        1 COA1300   0.0000
    26 O2A         22.2200    61.5190    54.6730 O.co2        1 COA1300  -1.0000
    27 O3A         23.7270    62.5580    56.4010 O.3          1 COA1300   0.0000
    28 P2A         23.9620    63.6640    57.5470 P.3          1 COA1300   0.0000
    29 O4A         24.2960    64.9600    56.8270 O.co2        1 COA1300   0.0000
    30 O5A         22.6290    63.6800    58.2820 O.co2        1 COA1300  -1.0000
    31 O6A         25.1180    63.0930    58.3680 O.3          1 COA1300   0.0000
    32 CBP         27.4110    62.6550    58.8360 C.3          1 COA1300   0.0000
    33 CCP         26.3430    62.6610    57.8050 C.3          1 COA1300   0.0000
    34 CDP         27.3550    64.0630    59.4070 C.3          1 COA1300   0.0000
    35 CEP         28.7750    62.4470    58.1530 C.3          1 COA1300   0.0000
    36 CAP         27.1280    61.5460    59.9220 C.3          1 COA1300   0.0000
    37 OAP         27.2390    60.2190    59.3640 O.3          1 COA1300   0.0000
    38 C9P         28.2240    61.4960    61.0020 C.2          1 COA1300   0.0000
    39 O9P         29.2730    60.8720    60.8220 O.2          1 COA1300   0.0000
    40 N8P         27.9620    62.1770    62.1340 N.am         1 COA1300   0.0000
    41 C7P         28.9010    62.2140    63.2530 C.3          1 COA1300   0.0000
    42 C6P         29.9190    63.3050    62.9950 C.3          1 COA1300   0.0000
    43 C5P         30.6920    63.5900    64.2610 C.2          1 COA1300   0.0000
    44 O5P         30.0820    63.4020    65.3120 O.2          1 COA1300   0.0000
    45 N4P         31.9670    64.0230    64.2230 N.am         1 COA1300   0.0000
    46 C3P         32.7680    64.3180    65.4220 C.3          1 COA1300   0.0000
    47 C2P         33.0910    65.8050    65.4490 C.3          1 COA1300   0.0000
    48 S1P         33.3660    66.1800    67.1740 S.3          1 COA1300   0.0000
    49 H2A         30.0458    63.3752    47.7747 H            1 COA1300   0.0000
    50 H6A1        30.2288    58.2204    48.2025 H            1 COA1300   0.0000
    51 H6A2        31.4772    59.2034    47.5131 H            1 COA1300   0.0000
    52 H8A         25.9628    59.2961    50.1775 H            1 COA1300   0.0000
    53 H1B         26.3456    63.0380    49.8201 H            1 COA1300   0.0000
    54 H2B         24.1248    61.4923    49.2645 H            1 COA1300   0.0000
    55 H7          23.6970    64.1027    49.3476 H            1 COA1300   0.0000
    56 H3B         23.3046    61.7024    51.3923 H            1 COA1300   0.0000
    57 H4B         25.0370    63.9460    51.9149 H            1 COA1300   0.0000
    58 H5B1        25.5700    62.8028    53.9499 H            1 COA1300   0.0000
    59 H5B2        24.4764    61.6556    53.5568 H            1 COA1300   0.0000
    60 HCP1        26.6027    63.2813    57.0648 H            1 COA1300   0.0000
    61 HCP2        26.2308    61.7364    57.4411 H            1 COA1300   0.0000
    62 HDP1        28.0480    64.1609    60.1212 H            1 COA1300   0.0000
    63 HDP2        27.5310    64.7253    58.6787 H            1 COA1300   0.0000
    64 HDP3        26.4491    64.2289    59.7966 H            1 COA1300   0.0000
    65 HEP1        29.4970    62.4424    58.8449 H            1 COA1300   0.0000
    66 HEP2        28.7743    61.5735    57.6662 H            1 COA1300   0.0000
    67 HEP3        28.9397    63.1900    57.5043 H            1 COA1300   0.0000
    68 HAP         26.2284    61.6802    60.3377 H            1 COA1300   0.0000
    69 H21         26.3660    59.7415    59.4635 H            1 COA1300   0.0000
    70 H8P         27.0972    62.6732    62.2112 H            1 COA1300   0.0000
    71 H7P1        29.3655    61.3320    63.3321 H            1 COA1300   0.0000
    72 H7P2        28.4072    62.4079    64.1007 H            1 COA1300   0.0000
    73 H6P1        29.4479    64.1359    62.6990 H            1 COA1300   0.0000
    74 H6P2        30.5511    63.0074    62.2795 H            1 COA1300   0.0000
    75 H4P         32.3942    64.1515    63.3280 H            1 COA1300   0.0000
    76 H3P1        33.6174    63.7909    65.3957 H            1 COA1300   0.0000
    77 H3P2        32.2487    64.0728    66.2407 H            1 COA1300   0.0000
    78 H2P1        32.3251    66.3385    65.0901 H            1 COA1300   0.0000
    79 H2P2        33.9120    65.9971    64.9114 H            1 COA1300   0.0000
    80 H1P         33.5860    67.1504    67.2732 H            1 COA1300   0.0000
@<TRIPOS>BOND
     1    1    2      ar
     2    1    6      ar
     3    2    3      ar
     4    3    4      ar
     5    4    5      ar
     6    4   10       1
     7    5    6      ar
     8    5    8       1
     9    6    7       1
    10    8    9       2
    11    9   10       1
    12   10   11       1
    13   11   12       1
    14   11   21       1
    15   12   13       1
    16   12   14       1
    17   14   15       1
    18   14   20       1
    19   15   16       1
    20   16   17      ar
    21   16   18      ar
    22   16   19      ar
    23   20   21       1
    24   20   22       1
    25   22   23       1
    26   23   24       1
    27   24   25      ar
    28   24   26      ar
    29   24   27       1
    30   27   28       1
    31   28   29      ar
    32   28   30      ar
    33   28   31       1
    34   31   33       1
    35   32   33       1
    36   32   34       1
    37   32   35       1
    38   32   36       1
    39   36   37       1
    40   36   38       1
    41   38   39       2
    42   38   40      am
    43   40   41       1
    44   41   42       1
    45   42   43       1
    46   43   44       2
    47   43   45      am
    48   45   46       1
    49   46   47       1
    50   47   48       1
    51    2   49       1
    52    7   50       1
    53    7   51       1
    54    9   52       1
    55   11   53       1
    56   12   54       1
    57   13   55       1
    58   14   56       1
    59   48   80       1
    60   47   79       1
    61   20   57       1
    62   22   58       1
    63   22   59       1
    64   47   78       1
    65   46   77       1
    66   33   60       1
    67   33   61       1
    68   34   62       1
    69   34   63       1
    70   34   64       1
    71   35   65       1
    72   35   66       1
    73   35   67       1
    74   36   68       1
    75   37   69       1
    76   40   70       1
    77   41   71       1
    78   41   72       1
    79   42   73       1
    80   42   74       1
    81   45   75       1
    82   46   76       1
@<TRIPOS>SUBSTRUCTURE
     1 COA1300     1 GROUP             4 A     COA     0 **** COA A1300
