@<TRIPOS>MOLECULE
1hdr_NAD_1_ligand
   70    74     1     0     0
SMALL
NO_CHARGES


@<TRIPOS>ATOM
     1 PA          29.2140    45.2490    34.5220 P.3          1 NAD244   0.0000
     2 O1A         30.0960    44.3880    33.7060 O.co2        1 NAD244   0.0000
     3 O2A         29.7990    45.3110    35.8780 O.co2        1 NAD244  -1.0000
     4 O5B         27.7040    44.6480    34.5880 O.3          1 NAD244   0.0000
     5 C5B         27.1330    44.1840    33.3500 C.3          1 NAD244   0.0000
     6 C4B         26.2560    42.9430    33.6000 C.3          1 NAD244   0.0000
     7 O4B         25.2850    42.8120    32.5530 O.3          1 NAD244   0.0000
     8 C3B         27.1100    41.6770    33.5770 C.3          1 NAD244   0.0000
     9 O3B         26.7510    40.8880    34.7060 O.3          1 NAD244   0.0000
    10 C2B         26.7260    40.9530    32.2840 C.3          1 NAD244   0.0000
    11 O2B         26.6840    39.5310    32.4970 O.3          1 NAD244   0.0000
    12 C1B         25.3170    41.4770    32.0060 C.3          1 NAD244   0.0000
    13 N9A         24.9500    41.5530    30.6520 N.pl3        1 NAD244   0.0000
    14 C8A         25.9490    41.3430    29.6720 C.2          1 NAD244   0.0000
    15 N7A         25.4480    40.4220    28.7240 N.2          1 NAD244   0.0000
    16 C5A         24.2070    40.0970    29.1940 C.ar         1 NAD244   0.0000
    17 C6A         23.3190    39.2570    28.6130 C.ar         1 NAD244   0.0000
    18 N6A         23.6070    38.6420    27.4150 N.pl3        1 NAD244   0.0000
    19 N1A         22.1050    39.0260    29.2060 N.ar         1 NAD244   0.0000
    20 C2A         21.8260    39.7050    30.3990 C.ar         1 NAD244   0.0000
    21 N3A         22.7460    40.5920    30.9570 N.ar         1 NAD244   0.0000
    22 C4A         23.9240    40.7310    30.2910 C.ar         1 NAD244   0.0000
    23 O3          29.1610    46.7140    33.8430 O.3          1 NAD244   0.0000
    24 PN          28.9920    47.9720    34.8620 P.3          1 NAD244   0.0000
    25 O1N         30.3040    48.2940    35.4720 O.co2        1 NAD244   0.0000
    26 O2N         28.0080    47.6520    35.9160 O.co2        1 NAD244  -1.0000
    27 O5D         28.5050    49.2520    33.9810 O.3          1 NAD244   0.0000
    28 C5D         27.1250    49.2310    33.5700 C.3          1 NAD244   0.0000
    29 C4D         26.9540    49.9540    32.2280 C.3          1 NAD244   0.0000
    30 O4D         27.6200    51.2480    32.2270 O.3          1 NAD244   0.0000
    31 C3D         27.5700    49.1040    31.1100 C.3          1 NAD244   0.0000
    32 O3D         26.6690    49.1410    29.9950 O.3          1 NAD244   0.0000
    33 C2D         28.8640    49.8300    30.7530 C.3          1 NAD244   0.0000
    34 O2D         29.1820    49.6620    29.3570 O.3          1 NAD244   0.0000
    35 C1D         28.5110    51.3030    31.0690 C.3          1 NAD244   0.0000
    36 N1N         29.6320    52.0740    31.3680 N.ar         1 NAD244   1.0000
    37 C2N         30.4770    51.5900    32.3250 C.ar         1 NAD244   0.0000
    38 C3N         31.7900    51.9790    32.3360 C.ar         1 NAD244   0.0000
    39 C7N         32.6540    51.4210    33.2630 C.2          1 NAD244   0.0000
    40 O7N         33.9413    51.9171    33.3852 O.2          1 NAD244   0.0000
    41 N7N         32.2596    50.3739    34.0550 N.am         1 NAD244   0.0000
    42 C4N         32.2300    52.8800    31.3910 C.ar         1 NAD244   0.0000
    43 C5N         31.3740    53.3430    30.4220 C.ar         1 NAD244   0.0000
    44 C6N         30.0610    52.9290    30.3940 C.ar         1 NAD244   0.0000
    45 H5B1        27.8686    43.9461    32.7158 H            1 NAD244   0.0000
    46 H5B2        26.5720    44.9101    32.9525 H            1 NAD244   0.0000
    47 H4B         25.7943    43.0255    34.4832 H            1 NAD244   0.0000
    48 H3B         28.0847    41.9000    33.5889 H            1 NAD244   0.0000
    49 H5          25.7806    40.6524    34.6530 H            1 NAD244   0.0000
    50 H2B         27.3514    41.1878    31.5399 H            1 NAD244   0.0000
    51 H7          25.7635    39.2637    32.7820 H            1 NAD244   0.0000
    52 H1B         24.6544    40.9080    32.4930 H            1 NAD244   0.0000
    53 H8A         26.8523    41.7716    29.6534 H            1 NAD244   0.0000
    54 H6A1        22.9411    38.0237    26.9975 H            1 NAD244   0.0000
    55 H6A2        24.4821    38.8137    26.9625 H            1 NAD244   0.0000
    56 H2A         20.9514    39.5509    30.8588 H            1 NAD244   0.0000
    57 H5D1        26.5680    49.6879    34.2635 H            1 NAD244   0.0000
    58 H5D2        26.8247    48.2821    33.4734 H            1 NAD244   0.0000
    59 H4D         25.9795    50.0841    32.0450 H            1 NAD244   0.0000
    60 H3D         27.7442    48.1669    31.4125 H            1 NAD244   0.0000
    61 H17         26.0150    48.3882    30.0698 H            1 NAD244   0.0000
    62 H2D         29.6182    49.5146    31.3290 H            1 NAD244   0.0000
    63 H19         30.0320    50.1457    29.1482 H            1 NAD244   0.0000
    64 H1D         28.0259    51.7049    30.2923 H            1 NAD244   0.0000
    65 H2N         30.1377    50.9525    33.0167 H            1 NAD244   0.0000
    66 H7N1        32.9022    49.9697    34.7059 H            1 NAD244   0.0000
    67 H7N2        31.3294    50.0144    33.9818 H            1 NAD244   0.0000
    68 H4N         33.1777    53.1985    31.4108 H            1 NAD244   0.0000
    69 H5N         31.7067    53.9855    29.7317 H            1 NAD244   0.0000
    70 H6N         29.4381    53.2463    29.6790 H            1 NAD244   0.0000
@<TRIPOS>BOND
     1    1    2      ar
     2    1    3      ar
     3    1    4       1
     4    1   23       1
     5    4    5       1
     6    5    6       1
     7    6    7       1
     8    6    8       1
     9    7   12       1
    10    8    9       1
    11    8   10       1
    12   10   11       1
    13   10   12       1
    14   12   13       1
    15   13   14       1
    16   13   22       1
    17   14   15       2
    18   15   16       1
    19   16   17      ar
    20   16   22      ar
    21   17   18       1
    22   17   19      ar
    23   19   20      ar
    24   20   21      ar
    25   21   22      ar
    26   23   24       1
    27   24   25      ar
    28   24   26      ar
    29   24   27       1
    30   27   28       1
    31   28   29       1
    32   29   30       1
    33   29   31       1
    34   30   35       1
    35   31   32       1
    36   31   33       1
    37   33   34       1
    38   33   35       1
    39   35   36       1
    40   36   37      ar
    41   36   44      ar
    42   37   38      ar
    43   38   39       1
    44   38   42      ar
    45   39   40       2
    46   39   41      am
    47   42   43      ar
    48   43   44      ar
    49   44   70       1
    50    5   45       1
    51    5   46       1
    52    6   47       1
    53    8   48       1
    54    9   49       1
    55   10   50       1
    56   11   51       1
    57   12   52       1
    58   14   53       1
    59   18   54       1
    60   18   55       1
    61   20   56       1
    62   43   69       1
    63   28   57       1
    64   28   58       1
    65   29   59       1
    66   31   60       1
    67   32   61       1
    68   33   62       1
    69   34   63       1
    70   35   64       1
    71   37   65       1
    72   41   66       1
    73   41   67       1
    74   42   68       1
@<TRIPOS>SUBSTRUCTURE
     1 NAD244      1 GROUP             4 A     NAD     0 **** NAD A 244
