@<TRIPOS>MOLECULE
3anp_DCC_1_ligand
  115   117     1     0     0
SMALL
NO_CHARGES


@<TRIPOS>ATOM
     1 C2          42.7020    42.6230    23.3570 C.ar         1 DCC1001   0.0000
     2 C4          40.7610    43.8050    23.7660 C.ar         1 DCC1001   0.0000
     3 C5          40.9680    43.6700    25.1310 C.ar         1 DCC1001   0.0000
     4 C6          42.0870    42.9710    25.5650 C.ar         1 DCC1001   0.0000
     5 C8          39.1500    44.7710    24.8200 C.2          1 DCC1001   0.0000
     6 C10         36.0300    33.2130     3.2730 C.3          1 DCC1001   0.0000
     7 C11         36.2830    32.1400     2.2120 C.3          1 DCC1001   0.0000
     8 C12         36.1600    32.7300     0.8050 C.3          1 DCC1001   0.0000
     9 N9          39.6250    44.4760    23.6120 N.pl3        1 DCC1001   0.0000
    10 N7          39.9630    44.2790    25.7520 N.2          1 DCC1001   0.0000
    11 N3          41.6440    43.2750    22.9090 N.ar         1 DCC1001   0.0000
    12 N1          42.9280    42.4670    24.6500 N.ar         1 DCC1001   0.0000
    13 N6          42.2970    42.7730    26.8630 N.pl3        1 DCC1001   0.0000
    14 C1'         38.9280    44.7430    22.3330 C.3          1 DCC1001   0.0000
    15 C2'         39.8190    45.2720    21.2100 C.3          1 DCC1001   0.0000
    16 O2'         40.1610    46.6370    21.4590 O.3          1 DCC1001   0.0000
    17 C3'         38.7280    45.2210    20.1430 C.3          1 DCC1001   0.0000
    18 O3'         37.7100    46.1610    20.4900 O.3          1 DCC1001   0.0000
    19 C4'         38.1600    43.8200    20.3780 C.3          1 DCC1001   0.0000
    20 O4'         38.4600    43.5140    21.7530 O.3          1 DCC1001   0.0000
    21 C5'         38.8440    42.8190    19.4460 C.3          1 DCC1001   0.0000
    22 O5'         40.2620    42.8260    19.6190 O.3          1 DCC1001   0.0000
    23 P1          41.1990    42.1600    18.4910 P.3          1 DCC1001   0.0000
    24 O11         40.7640    42.6050    17.1490 O.co2        1 DCC1001   0.0000
    25 O12         42.6200    42.3380    18.8650 O.co2        1 DCC1001  -1.0000
    26 O6          40.8470    40.5990    18.6320 O.3          1 DCC1001   0.0000
    27 P2          41.2510    39.7780    19.9550 P.3          1 DCC1001   0.0000
    28 O21         42.7040    39.9030    20.2060 O.co2        1 DCC1001   0.0000
    29 O22         40.2970    40.0810    21.0460 O.co2        1 DCC1001  -1.0000
    30 O7          40.9440    38.2810    19.4550 O.3          1 DCC1001   0.0000
    31 CPA         39.8280    38.0730    18.5850 C.3          1 DCC1001   0.0000
    32 CPB         39.8020    36.6180    18.1200 C.3          1 DCC1001   0.0000
    33 CP8         39.7760    35.7360    19.3720 C.3          1 DCC1001   0.0000
    34 CP7         41.0500    36.3420    17.2780 C.3          1 DCC1001   0.0000
    35 CP9         38.5550    36.3890    17.2630 C.3          1 DCC1001   0.0000
    36 OP3         38.5190    35.0680    19.4960 O.3          1 DCC1001   0.0000
    37 CP6         40.9340    34.7360    19.4080 C.2          1 DCC1001   0.0000
    38 OP2         41.8480    34.8860    20.2180 O.2          1 DCC1001   0.0000
    39 NP2         40.8920    33.7280    18.5400 N.am         1 DCC1001   0.0000
    40 CP5         39.8230    33.5160    17.5540 C.3          1 DCC1001   0.0000
    41 CP4         38.6780    32.7100    18.1690 C.3          1 DCC1001   0.0000
    42 CP3         37.7940    32.1350    17.0600 C.2          1 DCC1001   0.0000
    43 OP1         38.2550    31.9720    15.9320 O.2          1 DCC1001   0.0000
    44 NP1         36.5400    31.8420    17.3940 N.am         1 DCC1001   0.0000
    45 CP2         35.6160    31.2600    16.4090 C.3          1 DCC1001   0.0000
    46 CP1         34.2440    31.9380    16.4550 C.3          1 DCC1001   0.0000
    47 S           33.4340    31.9310    14.8130 S.3          1 DCC1001   0.0000
    48 P3          37.2760    47.2980    19.4390 P.3          1 DCC1001   0.0000
    49 O31         38.1770    48.4710    19.4980 O.co2        1 DCC1001   0.0000
    50 O32         37.2620    46.6000    17.9910 O.co2        1 DCC1001  -1.0000
    51 O33         35.7500    47.6490    19.8110 O.co2        1 DCC1001  -1.0000
    52 CA1         34.5910    32.9350    13.9680 C.2          1 DCC1001   0.0000
    53 CA2         34.4260    33.2230    12.4740 C.3          1 DCC1001   0.0000
    54 OA1         35.5340    33.4150    14.5950 O.2          1 DCC1001   0.0000
    55 CA3         35.3930    34.3320    12.0530 C.3          1 DCC1001   0.0000
    56 CA4         35.1960    34.7680    10.6000 C.3          1 DCC1001   0.0000
    57 CA5         35.5840    33.6740     9.6030 C.3          1 DCC1001   0.0000
    58 CA6         35.5360    34.2250     8.1760 C.3          1 DCC1001   0.0000
    59 CA7         35.9220    33.1600     7.1480 C.3          1 DCC1001   0.0000
    60 CA8         35.8590    33.7270     5.7290 C.3          1 DCC1001   0.0000
    61 CA9         36.1460    32.6420     4.6880 C.3          1 DCC1001   0.0000
    62 H1          43.3496    42.2369    22.7000 H            1 DCC1001   0.0000
    63 H2          38.3106    45.2839    24.9998 H            1 DCC1001   0.0000
    64 H3          35.1100    33.5840     3.1469 H            1 DCC1001   0.0000
    65 H4          36.7026    33.9447     3.1618 H            1 DCC1001   0.0000
    66 H5          35.6117    31.4067     2.3202 H            1 DCC1001   0.0000
    67 H6          37.2039    31.7694     2.3331 H            1 DCC1001   0.0000
    68 H7          36.3286    32.0141     0.1274 H            1 DCC1001   0.0000
    69 H8          35.2395    33.0993     0.6777 H            1 DCC1001   0.0000
    70 H9          36.8316    33.4620     0.6906 H            1 DCC1001   0.0000
    71 H10         43.1051    42.2687    27.1676 H            1 DCC1001   0.0000
    72 H11         41.6469    43.1284    27.5346 H            1 DCC1001   0.0000
    73 H1'         38.1601    45.3655    22.4840 H            1 DCC1001   0.0000
    74 H2'         40.6063    44.6885    21.0105 H            1 DCC1001   0.0000
    75 H14         39.8298    47.2062    20.7065 H            1 DCC1001   0.0000
    76 H3'         39.0806    45.3501    19.2162 H            1 DCC1001   0.0000
    77 H4'         37.1713    43.8156    20.2282 H            1 DCC1001   0.0000
    78 H5'1        38.6311    43.0592    18.4989 H            1 DCC1001   0.0000
    79 H5'2        38.4972    41.9021    19.6434 H            1 DCC1001   0.0000
    80 HPA1        39.9093    38.6746    17.7903 H            1 DCC1001   0.0000
    81 HPA2        38.9813    38.2806    19.0749 H            1 DCC1001   0.0000
    82 HP8         39.8750    36.3377    20.1645 H            1 DCC1001   0.0000
    83 HP71        41.0404    35.3908    16.9696 H            1 DCC1001   0.0000
    84 HP72        41.0575    36.9498    16.4840 H            1 DCC1001   0.0000
    85 HP73        41.8675    36.5051    17.8303 H            1 DCC1001   0.0000
    86 HP91        38.5321    35.4378    16.9553 H            1 DCC1001   0.0000
    87 HP92        37.7376    36.5837    17.8051 H            1 DCC1001   0.0000
    88 HP93        38.5805    36.9958    16.4686 H            1 DCC1001   0.0000
    89 HP3         38.5237    34.4988    20.3182 H            1 DCC1001   0.0000
    90 HP2         41.6421    33.0670    18.5602 H            1 DCC1001   0.0000
    91 HP51        40.1927    33.0170    16.7702 H            1 DCC1001   0.0000
    92 HP52        39.4749    34.4029    17.2504 H            1 DCC1001   0.0000
    93 HP41        38.1295    33.3065    18.7549 H            1 DCC1001   0.0000
    94 HP42        39.0547    31.9615    18.7148 H            1 DCC1001   0.0000
    95 HP1         36.2221    32.0195    18.3254 H            1 DCC1001   0.0000
    96 HP21        35.5035    30.2859    16.6054 H            1 DCC1001   0.0000
    97 HP22        36.0035    31.3730    15.4941 H            1 DCC1001   0.0000
    98 HP11        34.3596    32.8846    16.7559 H            1 DCC1001   0.0000
    99 HP12        33.6624    31.4500    17.1059 H            1 DCC1001   0.0000
   100 HA21        33.4867    33.5147    12.2934 H            1 DCC1001   0.0000
   101 HA22        34.6237    32.3935    11.9517 H            1 DCC1001   0.0000
   102 HA31        36.3293    33.9985    12.1626 H            1 DCC1001   0.0000
   103 HA32        35.2495    35.1238    12.6467 H            1 DCC1001   0.0000
   104 HA41        35.7616    35.5745    10.4276 H            1 DCC1001   0.0000
   105 HA42        34.2332    35.0005    10.4625 H            1 DCC1001   0.0000
   106 HA51        34.9443    32.9097     9.6845 H            1 DCC1001   0.0000
   107 HA52        36.5105    33.3561     9.8042 H            1 DCC1001   0.0000
   108 HA61        36.1728    34.9925     8.1029 H            1 DCC1001   0.0000
   109 HA62        34.6078    34.5423     7.9817 H            1 DCC1001   0.0000
   110 HA71        35.2894    32.3890     7.2214 H            1 DCC1001   0.0000
   111 HA72        36.8530    32.8463     7.3347 H            1 DCC1001   0.0000
   112 HA81        36.5386    34.4549     5.6378 H            1 DCC1001   0.0000
   113 HA82        34.9459    34.1013     5.5672 H            1 DCC1001   0.0000
   114 HA91        37.0718    32.2901     4.8260 H            1 DCC1001   0.0000
   115 HA92        35.4869    31.8980     4.7977 H            1 DCC1001   0.0000
@<TRIPOS>BOND
     1    1   11      ar
     2    1   12      ar
     3    2    3      ar
     4    2    9       1
     5    2   11      ar
     6    3    4      ar
     7    3   10       1
     8    4   12      ar
     9    4   13       1
    10    5    9       1
    11    5   10       2
    12    6    7       1
    13    6   61       1
    14    7    8       1
    15    9   14       1
    16   14   15       1
    17   14   20       1
    18   15   16       1
    19   15   17       1
    20   17   18       1
    21   17   19       1
    22   18   48       1
    23   19   20       1
    24   19   21       1
    25   21   22       1
    26   22   23       1
    27   23   24      ar
    28   23   25      ar
    29   23   26       1
    30   26   27       1
    31   27   28      ar
    32   27   29      ar
    33   27   30       1
    34   30   31       1
    35   31   32       1
    36   32   33       1
    37   32   34       1
    38   32   35       1
    39   33   36       1
    40   33   37       1
    41   37   38       2
    42   37   39      am
    43   39   40       1
    44   40   41       1
    45   41   42       1
    46   42   43       2
    47   42   44      am
    48   44   45       1
    49   45   46       1
    50   46   47       1
    51   47   52       1
    52   48   49      ar
    53   48   50      ar
    54   48   51      ar
    55   52   53       1
    56   52   54       2
    57   53   55       1
    58   55   56       1
    59   56   57       1
    60   57   58       1
    61   58   59       1
    62   59   60       1
    63   60   61       1
    64    1   62       1
    65    5   63       1
    66    6   64       1
    67    6   65       1
    68    7   66       1
    69    7   67       1
    70    8   68       1
    71    8   69       1
    72    8   70       1
    73   13   71       1
    74   13   72       1
    75   14   73       1
    76   15   74       1
    77   16   75       1
    78   17   76       1
    79   19   77       1
    80   21   78       1
    81   21   79       1
    82   61  115       1
    83   61  114       1
    84   31   80       1
    85   31   81       1
    86   33   82       1
    87   34   83       1
    88   34   84       1
    89   34   85       1
    90   35   86       1
    91   35   87       1
    92   35   88       1
    93   36   89       1
    94   39   90       1
    95   40   91       1
    96   40   92       1
    97   41   93       1
    98   41   94       1
    99   44   95       1
   100   45   96       1
   101   45   97       1
   102   46   98       1
   103   46   99       1
   104   60  113       1
   105   60  112       1
   106   53  100       1
   107   53  101       1
   108   55  102       1
   109   55  103       1
   110   56  104       1
   111   56  105       1
   112   57  106       1
   113   57  107       1
   114   58  108       1
   115   58  109       1
   116   59  110       1
   117   59  111       1
@<TRIPOS>SUBSTRUCTURE
     1 DCC1001     1 GROUP             4 A     DCC     0 **** DCC A1001
