@<TRIPOS>MOLECULE
4dkv_0KW_2_ligand
   55    57     1     0     0
SMALL
NO_CHARGES


@<TRIPOS>ATOM
     1 C01         -4.5400   -32.7020     3.2910 C.ar         1 0KW511   0.0000
     2 C02         -5.8410   -32.9580     3.5200 C.ar         1 0KW511   0.0000
     3 C03         -6.6800   -33.2020     2.4890 C.ar         1 0KW511   0.0000
     4 C04         -6.1990   -33.1980     1.2360 C.ar         1 0KW511   0.0000
     5 C05         -4.8960   -32.9290     1.0130 C.ar         1 0KW511   0.0000
     6 C06         -4.0700   -32.6790     2.0450 C.ar         1 0KW511   0.0000
     7 CL1         -3.4700   -32.3800     4.5610 Cl           1 0KW511   0.0000
     8 N08         -6.9690   -33.4430     0.0410 N.am         1 0KW511   0.0000
     9 C09         -8.3830   -33.3320    -0.0200 C.2          1 0KW511   0.0000
    10 C10         -9.1000   -33.5970    -1.3370 C.2          1 0KW511   0.0000
    11 N11        -10.5390   -33.4610    -1.4240 N.am         1 0KW511   0.0000
    12 O12         -8.4580   -33.8920    -2.3080 O.2          1 0KW511   0.0000
    13 O13         -9.0080   -33.0450     0.9440 O.2          1 0KW511   0.0000
    14 C14        -11.2280   -33.7180    -2.6440 C.3          1 0KW511   0.0000
    15 C15        -12.4520   -34.5540    -2.4170 C.3          1 0KW511   0.0000
    16 C16        -11.6470   -32.4750    -3.3910 C.2          1 0KW511   0.0000
    17 C17        -12.7530   -34.9960    -1.0470 C.3          1 0KW511   0.0000
    18 C18        -14.0600   -35.7180    -1.0360 C.3          1 0KW511   0.0000
    19 C19        -14.2300   -36.7490    -2.0480 C.3          1 0KW511   0.0000
    20 C20        -13.6240   -36.4340    -3.3520 C.3          1 0KW511   0.0000
    21 N21        -12.3240   -35.7830    -3.1700 N.4          1 0KW511   1.0000
    22 N22        -11.7510   -32.4680    -4.7120 N.2          1 0KW511   0.0000
    23 C23        -12.2120   -31.2620    -5.1600 C.2          1 0KW511   0.0000
    24 C24        -12.5160   -30.2900    -4.1920 C.2          1 0KW511   0.0000
    25 S25        -12.1790   -31.0160    -2.6670 S.3          1 0KW511   0.0000
    26 C26        -12.3820   -31.0350    -6.6370 C.3          1 0KW511   0.0000
    27 C27        -13.0570   -28.8860    -4.4340 C.3          1 0KW511   0.0000
    28 C28        -13.5490   -28.2320    -3.1260 C.3          1 0KW511   0.0000
    29 O29        -14.1150   -26.9830    -3.3280 O.3          1 0KW511   0.0000
    30 H1          -6.1887   -32.9678     4.4575 H            1 0KW511   0.0000
    31 H2          -7.6488   -33.3836     2.6579 H            1 0KW511   0.0000
    32 H3          -4.5430   -32.9154     0.0775 H            1 0KW511   0.0000
    33 H4          -3.1053   -32.4763     1.8770 H            1 0KW511   0.0000
    34 H5          -6.4796   -33.7056    -0.7906 H            1 0KW511   0.0000
    35 H6         -11.0570   -33.1824    -0.6153 H            1 0KW511   0.0000
    36 H7         -10.6120   -34.2360    -3.2375 H            1 0KW511   0.0000
    37 H8         -13.2437   -34.0528    -2.7663 H            1 0KW511   0.0000
    38 H9         -12.8061   -34.2003    -0.4436 H            1 0KW511   0.0000
    39 H10        -12.0303   -35.6090    -0.7276 H            1 0KW511   0.0000
    40 H11        -14.7843   -35.0407    -1.1651 H            1 0KW511   0.0000
    41 H12        -14.1631   -36.1496    -0.1398 H            1 0KW511   0.0000
    42 H13        -15.2101   -36.8920    -2.1860 H            1 0KW511   0.0000
    43 H14        -13.8149   -37.5924    -1.7068 H            1 0KW511   0.0000
    44 H15        -14.2311   -35.8209    -3.8575 H            1 0KW511   0.0000
    45 H16        -13.4986   -37.2804    -3.8696 H            1 0KW511   0.0000
    46 H17        -11.7145   -36.4046    -2.6778 H            1 0KW511   0.0000
    47 H18        -12.7249   -30.1089    -6.7946 H            1 0KW511   0.0000
    48 H19        -11.5001   -31.1464    -7.0951 H            1 0KW511   0.0000
    49 H20        -13.0341   -31.6987    -7.0034 H            1 0KW511   0.0000
    50 H21        -13.8208   -28.9392    -5.0772 H            1 0KW511   0.0000
    51 H22        -12.3303   -28.3215    -4.8254 H            1 0KW511   0.0000
    52 H23        -12.7706   -28.1332    -2.5060 H            1 0KW511   0.0000
    53 H24        -14.2340   -28.8291    -2.7085 H            1 0KW511   0.0000
    54 H25        -14.4150   -26.6072    -2.4512 H            1 0KW511   0.0000
    55 H26        -11.9349   -35.5760    -4.0676 H            1 0KW511   0.0000
@<TRIPOS>BOND
     1    1    2      ar
     2    1    6      ar
     3    1    7       1
     4    2    3      ar
     5    3    4      ar
     6    4    5      ar
     7    4    8       1
     8    5    6      ar
     9    8    9      am
    10    9   10       1
    11    9   13       2
    12   10   11      am
    13   10   12       2
    14   11   14       1
    15   14   15       1
    16   14   16       1
    17   15   17       1
    18   15   21       1
    19   16   22       2
    20   16   25       1
    21   17   18       1
    22   18   19       1
    23   19   20       1
    24   20   21       1
    25   22   23       1
    26   23   24       2
    27   23   26       1
    28   24   25       1
    29   24   27       1
    30   27   28       1
    31   28   29       1
    32    2   30       1
    33    3   31       1
    34    5   32       1
    35    6   33       1
    36    8   34       1
    37   11   35       1
    38   14   36       1
    39   15   37       1
    40   17   38       1
    41   17   39       1
    42   18   40       1
    43   18   41       1
    44   19   42       1
    45   19   43       1
    46   20   44       1
    47   20   45       1
    48   21   46       1
    49   26   47       1
    50   26   48       1
    51   26   49       1
    52   27   50       1
    53   27   51       1
    54   28   52       1
    55   28   53       1
    56   29   54       1
    57   21   55       1
@<TRIPOS>SUBSTRUCTURE
     1 0KW511      1 GROUP             4 B     0KW     0 **** 0KW B 511
