@<TRIPOS>MOLECULE
4z87_GDP_6_ligand
   40    42     1     0     0
SMALL
NO_CHARGES


@<TRIPOS>ATOM
     1 PB          25.0340   -48.6380   -54.3270 P.3          1 GDP603   0.0000
     2 O1B         24.4590   -48.5900   -55.7130 O.co2        1 GDP603   0.0000
     3 O2B         26.5370   -48.6690   -54.3220 O.co2        1 GDP603  -1.0000
     4 O3B         24.4060   -49.6840   -53.4660 O.co2        1 GDP603  -1.0000
     5 O3A         24.5920   -47.2440   -53.6260 O.3          1 GDP603   0.0000
     6 PA          25.2930   -46.5250   -52.3480 P.3          1 GDP603   0.0000
     7 O1A         26.7530   -46.8450   -52.3860 O.co2        1 GDP603   0.0000
     8 O2A         24.8850   -45.0880   -52.2950 O.co2        1 GDP603  -1.0000
     9 O5'         24.6630   -47.2120   -51.0340 O.3          1 GDP603   0.0000
    10 C5'         23.2580   -47.2770   -50.8470 C.3          1 GDP603   0.0000
    11 C4'         22.7820   -46.7330   -49.5030 C.3          1 GDP603   0.0000
    12 O4'         21.4590   -47.2050   -49.2620 O.3          1 GDP603   0.0000
    13 C3'         23.6160   -47.1700   -48.3180 C.3          1 GDP603   0.0000
    14 O3'         23.8430   -46.0620   -47.4510 O.3          1 GDP603   0.0000
    15 C2'         22.7760   -48.2270   -47.6380 C.3          1 GDP603   0.0000
    16 O2'         22.9580   -48.2390   -46.2380 O.3          1 GDP603   0.0000
    17 C1'         21.3470   -47.8860   -48.0240 C.3          1 GDP603   0.0000
    18 N9          20.5410   -49.1020   -48.2060 N.pl3        1 GDP603   0.0000
    19 C8          19.4520   -49.4420   -47.5100 C.2          1 GDP603   0.0000
    20 N7          18.9710   -50.6340   -47.9220 N.2          1 GDP603   0.0000
    21 C5          19.7700   -51.0770   -48.8940 C.2          1 GDP603   0.0000
    22 C6          19.8420   -52.2690   -49.7560 C.2          1 GDP603   0.0000
    23 O6          19.0020   -53.1660   -49.6570 O.2          1 GDP603   0.0000
    24 N1          20.8400   -52.3500   -50.6370 N.pl3        1 GDP603   0.0000
    25 C2          21.7550   -51.3890   -50.7580 C.2          1 GDP603   0.0000
    26 N2          22.7310   -51.5370   -51.6720 N.pl3        1 GDP603   0.0000
    27 N3          21.7600   -50.2700   -49.9970 N.2          1 GDP603   0.0000
    28 C4          20.8170   -50.0720   -49.0660 C.2          1 GDP603   0.0000
    29 H5'1        22.9760   -48.2339   -50.9160 H            1 GDP603   0.0000
    30 H5'2        22.8198   -46.7472   -51.5731 H            1 GDP603   0.0000
    31 H4'         22.7695   -45.7338   -49.5419 H            1 GDP603   0.0000
    32 H3'         24.4850   -47.5577   -48.6255 H            1 GDP603   0.0000
    33 H5          24.6824   -45.5918   -47.7238 H            1 GDP603   0.0000
    34 H2'         23.0124   -49.1251   -48.0089 H            1 GDP603   0.0000
    35 H7          23.6174   -47.5323   -45.9815 H            1 GDP603   0.0000
    36 H1'         20.9317   -47.2919   -47.3351 H            1 GDP603   0.0000
    37 H9          19.0479   -48.8880   -46.7821 H            1 GDP603   0.0000
    38 H10         20.9035   -53.1566   -51.2247 H            1 GDP603   0.0000
    39 H11         23.4276   -50.8276   -51.7790 H            1 GDP603   0.0000
    40 H12         22.7599   -52.3564   -52.2444 H            1 GDP603   0.0000
@<TRIPOS>BOND
     1    1    2      ar
     2    1    3      ar
     3    1    4      ar
     4    1    5       1
     5    5    6       1
     6    6    7      ar
     7    6    8      ar
     8    6    9       1
     9    9   10       1
    10   10   11       1
    11   11   12       1
    12   11   13       1
    13   12   17       1
    14   13   14       1
    15   13   15       1
    16   15   16       1
    17   15   17       1
    18   17   18       1
    19   18   19       1
    20   18   28       1
    21   19   20       2
    22   20   21       1
    23   21   22       1
    24   21   28       2
    25   22   23       2
    26   22   24       1
    27   24   25       1
    28   25   26       1
    29   25   27       2
    30   27   28       1
    31   26   40       1
    32   26   39       1
    33   24   38       1
    34   10   29       1
    35   10   30       1
    36   11   31       1
    37   13   32       1
    38   14   33       1
    39   15   34       1
    40   16   35       1
    41   17   36       1
    42   19   37       1
@<TRIPOS>SUBSTRUCTURE
     1 GDP603      1 GROUP             4 A     GDP     0 **** GDP A 603
