@<TRIPOS>MOLECULE
1z69_F42_4_ligand
   87    89     1     0     0
SMALL
NO_CHARGES


@<TRIPOS>ATOM
     1 N1          35.0070     3.9650    15.6490 N.pl3        1 F423328   0.0000
     2 C2          34.3450     4.1310    16.7280 C.2          1 F423328   0.0000
     3 O2          33.9320     3.1260    17.3070 O.2          1 F423328   0.0000
     4 N3          34.1120     5.4260    17.2190 N.pl3        1 F423328   0.0000
     5 C4          34.6440     6.5250    16.5380 C.2          1 F423328   0.0000
     6 O4          34.1770     7.6180    16.8350 O.2          1 F423328   0.0000
     7 C4A         35.6910     6.3260    15.5440 C.2          1 F423328   0.0000
     8 C5          36.4050     7.4020    14.8470 C.3          1 F423328   0.0000
     9 C5A         36.5450     7.1140    13.4210 C.ar         1 F423328   0.0000
    10 C6          36.4160     8.0870    12.3280 C.ar         1 F423328   0.0000
    11 C7          36.6390     7.7170    10.9320 C.ar         1 F423328   0.0000
    12 C8          36.9270     6.3300    10.5470 C.ar         1 F423328   0.0000
    13 O8M         37.2630     5.7560     9.3270 O.3          1 F423328   0.0000
    14 C9          36.9100     5.4010    11.5770 C.ar         1 F423328   0.0000
    15 C9A         36.6500     5.6850    12.9600 C.ar         1 F423328   0.0000
    16 N10         36.3800     4.6530    13.8790 N.pl3        1 F423328   0.0000
    17 C10         35.6770     4.9470    15.0370 C.2          1 F423328   0.0000
    18 C1'         37.0000     3.3200    13.7250 C.3          1 F423328   0.0000
    19 C2'         36.1300     2.4190    12.8330 C.3          1 F423328   0.0000
    20 O2'         34.8750     2.2410    13.4660 O.3          1 F423328   0.0000
    21 C3'         36.7640     1.1680    12.2590 C.3          1 F423328   0.0000
    22 O3'         37.2220     0.3170    13.3440 O.3          1 F423328   0.0000
    23 C4'         37.8950     1.5010    11.2490 C.3          1 F423328   0.0000
    24 O4'         37.3280     2.2090    10.1200 O.3          1 F423328   0.0000
    25 C5'         38.6150     0.2490    10.7730 C.3          1 F423328   0.0000
    26 O5'         37.6150    -0.6050    10.2080 O.3          1 F423328   0.0000
    27 P           37.6100    -1.1860     8.7940 P.3          1 F423328   0.0000
    28 O1P         36.9740    -0.2870     7.8670 O.co2        1 F423328   0.0000
    29 O2P         38.9790    -1.6120     8.5630 O.co2        1 F423328  -1.0000
    30 O3P         36.6460    -2.3810     8.9840 O.3          1 F423328   0.0000
    31 C1I         37.0450    -3.6310     9.6320 C.3          1 F423328   0.0000
    32 C2I         35.8540    -4.3050    10.2860 C.3          1 F423328   0.0000
    33 C3I         37.6720    -4.5880     8.6310 C.2          1 F423328   0.0000
    34 O3I         38.2370    -5.5950     9.0370 O.2          1 F423328   0.0000
    35 N1H         37.2660    -4.4580     7.3680 N.am         1 F423328   0.0000
    36 C1H         37.8140    -5.2820     6.2880 C.3          1 F423328   0.0000
    37 C2H         37.9510    -4.4680     5.0130 C.2          1 F423328   0.0000
    38 O2U         38.4450    -5.0190     4.0030 O.co2        1 F423328   0.0000
    39 O2T         37.5550    -3.2860     5.0470 O.co2        1 F423328  -1.0000
    40 C3H         36.9040    -6.4780     6.0160 C.3          1 F423328   0.0000
    41 C4H         36.6210    -7.3110     7.2380 C.3          1 F423328   0.0000
    42 C5H         35.8190    -8.5310     6.9190 C.2          1 F423328   0.0000
    43 O5H         35.5820    -8.8320     5.7520 O.2          1 F423328   0.0000
    44 N1G         35.4220    -9.2590     7.9570 N.am         1 F423328   0.0000
    45 C1G         34.0580    -9.7660     8.0690 C.3          1 F423328   0.0000
    46 C2G         33.9760   -11.1720     7.4950 C.2          1 F423328   0.0000
    47 O2V         34.0390   -11.2910     6.2480 O.co2        1 F423328   0.0000
    48 O2W         33.5860   -12.0830     8.2630 O.co2        1 F423328  -1.0000
    49 C3G         33.0840    -8.8410     7.3280 C.3          1 F423328   0.0000
    50 C4G         31.6060    -9.0830     7.6270 C.3          1 F423328   0.0000
    51 C5G         30.9260   -10.0720     6.6770 C.2          1 F423328   0.0000
    52 O6G         31.3430   -11.2560     6.6270 O.co2        1 F423328   0.0000
    53 O7G         29.9630    -9.6600     5.9850 O.co2        1 F423328  -1.0000
    54 H1          35.0254     3.0526    15.2401 H            1 F423328   0.0000
    55 H2          33.5702     5.5608    18.0486 H            1 F423328   0.0000
    56 H3          37.3150     7.5023    15.2494 H            1 F423328   0.0000
    57 H4          35.8956     8.2554    14.9579 H            1 F423328   0.0000
    58 H5          36.1681     9.0310    12.5458 H            1 F423328   0.0000
    59 H6          36.5945     8.4227    10.2249 H            1 F423328   0.0000
    60 H8M         37.3436     6.3279     8.5106 H            1 F423328   0.0000
    61 H8          37.0954     4.4487    11.3346 H            1 F423328   0.0000
    62 H1'1        37.0965     2.8963    14.6256 H            1 F423328   0.0000
    63 H1'2        37.9025     3.4235    13.3069 H            1 F423328   0.0000
    64 H2'         35.9267     2.9836    12.0331 H            1 F423328   0.0000
    65 H12         34.2472     2.9608    13.1698 H            1 F423328   0.0000
    66 H3'         36.0532     0.6692    11.7631 H            1 F423328   0.0000
    67 H14         37.6405    -0.5088    12.9660 H            1 F423328   0.0000
    68 H4'         38.5586     2.0985    11.6992 H            1 F423328   0.0000
    69 H16         37.0470     1.5513     9.4211 H            1 F423328   0.0000
    70 H5'1        39.0628    -0.2057    11.5429 H            1 F423328   0.0000
    71 H5'2        39.2982     0.4850    10.0820 H            1 F423328   0.0000
    72 H1I         37.7206    -3.4218    10.3390 H            1 F423328   0.0000
    73 H2I1        36.1498    -5.1552    10.7215 H            1 F423328   0.0000
    74 H2I2        35.4634    -3.6955    10.9759 H            1 F423328   0.0000
    75 H2I3        35.1636    -4.5087     9.5918 H            1 F423328   0.0000
    76 H1H         36.5662    -3.7774     7.1513 H            1 F423328   0.0000
    77 H24         38.7168    -5.6155     6.5595 H            1 F423328   0.0000
    78 H3H1        37.3431    -7.0600     5.3315 H            1 F423328   0.0000
    79 H3H2        36.0347    -6.1385     5.6567 H            1 F423328   0.0000
    80 H4H1        36.1129    -6.7549     7.8957 H            1 F423328   0.0000
    81 H4H2        37.4905    -7.5944     7.6425 H            1 F423328   0.0000
    82 H1G         36.0774    -9.4658     8.6834 H            1 F423328   0.0000
    83 H30         33.8029    -9.7962     9.0354 H            1 F423328   0.0000
    84 H3G1        33.2257    -8.9649     6.3459 H            1 F423328   0.0000
    85 H3G2        33.3005    -7.8977     7.5796 H            1 F423328   0.0000
    86 H4G1        31.1262    -8.2079     7.5643 H            1 F423328   0.0000
    87 H4G2        31.5289    -9.4394     8.5581 H            1 F423328   0.0000
@<TRIPOS>BOND
     1    1    2       1
     2    1   17       1
     3    2    3       2
     4    2    4       1
     5    4    5       1
     6    5    6       2
     7    5    7       1
     8    7    8       1
     9    7   17       2
    10    8    9       1
    11    9   10      ar
    12    9   15      ar
    13   10   11      ar
    14   11   12      ar
    15   12   13       1
    16   12   14      ar
    17   14   15      ar
    18   15   16       1
    19   16   17       1
    20   16   18       1
    21   18   19       1
    22   19   20       1
    23   19   21       1
    24   21   22       1
    25   21   23       1
    26   23   24       1
    27   23   25       1
    28   25   26       1
    29   26   27       1
    30   27   28      ar
    31   27   29      ar
    32   27   30       1
    33   30   31       1
    34   31   32       1
    35   31   33       1
    36   33   34       2
    37   33   35      am
    38   35   36       1
    39   36   37       1
    40   36   40       1
    41   37   38      ar
    42   37   39      ar
    43   40   41       1
    44   41   42       1
    45   42   43       2
    46   42   44      am
    47   44   45       1
    48   45   46       1
    49   45   49       1
    50   46   47      ar
    51   46   48      ar
    52   49   50       1
    53   50   51       1
    54   51   52      ar
    55   51   53      ar
    56    1   54       1
    57    4   55       1
    58    8   56       1
    59    8   57       1
    60   10   58       1
    61   11   59       1
    62   13   60       1
    63   14   61       1
    64   18   62       1
    65   18   63       1
    66   19   64       1
    67   20   65       1
    68   21   66       1
    69   22   67       1
    70   23   68       1
    71   24   69       1
    72   25   70       1
    73   25   71       1
    74   49   85       1
    75   31   72       1
    76   32   73       1
    77   32   74       1
    78   32   75       1
    79   35   76       1
    80   36   77       1
    81   50   87       1
    82   40   78       1
    83   40   79       1
    84   41   80       1
    85   41   81       1
    86   44   82       1
    87   45   83       1
    88   50   86       1
    89   49   84       1
@<TRIPOS>SUBSTRUCTURE
     1 F423328     1 GROUP             4 D     F42     0 **** F42 D3328
