@<TRIPOS>MOLECULE
3cr3_ADP_2_ligand
   39    41     1     0     0
SMALL
NO_CHARGES


@<TRIPOS>ATOM
     1 PB          97.7850    21.7780    57.6280 P.3          1 ADP1211   0.0000
     2 O1B         99.1790    21.1870    57.8140 O.co2        1 ADP1211   0.0000
     3 O2B         97.4530    22.0450    56.1940 O.co2        1 ADP1211  -1.0000
     4 O3B         96.6820    21.1310    58.4550 O.co2        1 ADP1211  -1.0000
     5 PA          98.6020    23.7190    59.5990 P.3          1 ADP1211   0.0000
     6 O1A         99.0830    22.4940    60.3380 O.co2        1 ADP1211   0.0000
     7 O2A         99.5880    24.8280    59.3390 O.co2        1 ADP1211  -1.0000
     8 O3A         97.9200    23.2930    58.1820 O.3          1 ADP1211   0.0000
     9 O5'         97.3530    24.2850    60.4280 O.3          1 ADP1211   0.0000
    10 C5'         96.3260    23.4130    60.9150 C.3          1 ADP1211   0.0000
    11 C4'         95.3230    24.3010    61.6460 C.3          1 ADP1211   0.0000
    12 O4'         94.5320    25.0250    60.7000 O.3          1 ADP1211   0.0000
    13 C3'         94.3240    23.5340    62.5170 C.3          1 ADP1211   0.0000
    14 O3'         94.8470    23.3140    63.8380 O.3          1 ADP1211   0.0000
    15 C2'         93.0480    24.3740    62.4890 C.3          1 ADP1211   0.0000
    16 O2'         92.9120    25.2480    63.6150 O.3          1 ADP1211   0.0000
    17 C1'         93.1970    25.2170    61.2310 C.3          1 ADP1211   0.0000
    18 N9          92.1910    24.7980    60.2200 N.pl3        1 ADP1211   0.0000
    19 C8          92.3190    23.7800    59.3520 C.2          1 ADP1211   0.0000
    20 N7          91.2400    23.6690    58.5480 N.2          1 ADP1211   0.0000
    21 C5          90.3840    24.6340    58.9020 C.ar         1 ADP1211   0.0000
    22 C6          89.0440    25.0790    58.4530 C.ar         1 ADP1211   0.0000
    23 N6          88.3970    24.4510    57.4420 N.pl3        1 ADP1211   0.0000
    24 N1          88.5090    26.1410    59.0880 N.ar         1 ADP1211   0.0000
    25 C2          89.1440    26.7780    60.0950 C.ar         1 ADP1211   0.0000
    26 N3          90.3600    26.4300    60.5530 N.ar         1 ADP1211   0.0000
    27 C4          91.0130    25.3810    60.0070 C.ar         1 ADP1211   0.0000
    28 H5'1        96.7135    22.7382    61.5431 H            1 ADP1211   0.0000
    29 H5'2        95.8811    22.9423    60.1531 H            1 ADP1211   0.0000
    30 H4'         95.8215    24.9516    62.2188 H            1 ADP1211   0.0000
    31 H3'         94.1375    22.6484    62.0916 H            1 ADP1211   0.0000
    32 H5          94.1753    22.8124    64.3832 H            1 ADP1211   0.0000
    33 H2'         92.2463    23.7810    62.4139 H            1 ADP1211   0.0000
    34 H7          92.8952    24.7076    64.4563 H            1 ADP1211   0.0000
    35 H1'         93.0624    26.1818    61.4569 H            1 ADP1211   0.0000
    36 H9          93.1163    23.1781    59.3071 H            1 ADP1211   0.0000
    37 H10         87.4930    24.7672    57.1542 H            1 ADP1211   0.0000
    38 H11         88.8234    23.6712    56.9835 H            1 ADP1211   0.0000
    39 H12         88.6833    27.5541    60.5256 H            1 ADP1211   0.0000
@<TRIPOS>BOND
     1    1    2      ar
     2    1    3      ar
     3    1    4      ar
     4    1    8       1
     5    5    6      ar
     6    5    7      ar
     7    5    8       1
     8    5    9       1
     9    9   10       1
    10   10   11       1
    11   11   12       1
    12   11   13       1
    13   12   17       1
    14   13   14       1
    15   13   15       1
    16   15   16       1
    17   15   17       1
    18   17   18       1
    19   18   19       1
    20   18   27       1
    21   19   20       2
    22   20   21       1
    23   21   22      ar
    24   21   27      ar
    25   22   23       1
    26   22   24      ar
    27   24   25      ar
    28   25   26      ar
    29   26   27      ar
    30   25   39       1
    31   23   38       1
    32   23   37       1
    33   10   28       1
    34   10   29       1
    35   11   30       1
    36   13   31       1
    37   14   32       1
    38   15   33       1
    39   16   34       1
    40   17   35       1
    41   19   36       1
@<TRIPOS>SUBSTRUCTURE
     1 ADP1211     1 GROUP             4 B     ADP     0 **** ADP B1211
