@<TRIPOS>MOLECULE
1z5u_CMP_2_ligand
   34    37     1     0     0
SMALL
NO_CHARGES


@<TRIPOS>ATOM
     1 P           20.9080    -9.3340    75.9990 P.3          1 CMP504   0.0000
     2 O1P         20.4480   -10.3150    74.9800 O.3          1 CMP504   0.0000
     3 O2P         19.9680    -8.3070    76.5230 O.2          1 CMP504   0.0000
     4 O5'         21.4950   -10.1450    77.2540 O.3          1 CMP504   0.0000
     5 C5'         22.8530   -10.6020    77.2890 C.3          1 CMP504   0.0000
     6 C4'         23.7320    -9.5040    76.7890 C.3          1 CMP504   0.0000
     7 O4'         25.1340    -9.8160    76.7630 O.3          1 CMP504   0.0000
     8 C3'         23.4340    -9.2170    75.3430 C.3          1 CMP504   0.0000
     9 O3'         22.1760    -8.5680    75.3540 O.3          1 CMP504   0.0000
    10 C2'         24.6310    -8.3610    74.9370 C.3          1 CMP504   0.0000
    11 O2'         24.4510    -6.9880    75.2160 O.3          1 CMP504   0.0000
    12 C1'         25.7410    -8.9390    75.8320 C.3          1 CMP504   0.0000
    13 N9          26.8090    -9.6400    75.1280 N.pl3        1 CMP504   0.0000
    14 C8          26.8110   -10.8860    74.5550 C.2          1 CMP504   0.0000
    15 N7          27.9560   -11.2080    74.0010 N.2          1 CMP504   0.0000
    16 C5          28.7610   -10.0980    74.2260 C.ar         1 CMP504   0.0000
    17 C6          30.0950    -9.8060    73.8860 C.ar         1 CMP504   0.0000
    18 N6          30.8930   -10.6510    73.2290 N.pl3        1 CMP504   0.0000
    19 N1          30.5890    -8.6020    74.2510 N.ar         1 CMP504   0.0000
    20 C2          29.7880    -7.7520    74.9170 C.ar         1 CMP504   0.0000
    21 N3          28.5230    -7.9120    75.2950 N.ar         1 CMP504   0.0000
    22 C4          28.0640    -9.1220    74.9150 C.ar         1 CMP504   0.0000
    23 H1P         21.2185   -10.5792    74.3999 H            1 CMP504   0.0000
    24 H5'1        22.9535   -11.4076    76.7051 H            1 CMP504   0.0000
    25 H5'2        23.1064   -10.8368    78.2275 H            1 CMP504   0.0000
    26 H4'         23.5814    -8.6788    77.3333 H            1 CMP504   0.0000
    27 H3'         23.3982   -10.0616    74.8088 H            1 CMP504   0.0000
    28 H2'         24.8504    -8.4982    73.9711 H            1 CMP504   0.0000
    29 H7          25.2636    -6.4804    74.9297 H            1 CMP504   0.0000
    30 H1'         26.1515    -8.1831    76.3420 H            1 CMP504   0.0000
    31 H9          26.0153   -11.4917    74.5590 H            1 CMP504   0.0000
    32 H10         31.8335   -10.3867    73.0153 H            1 CMP504   0.0000
    33 H11         30.5502   -11.5482    72.9506 H            1 CMP504   0.0000
    34 H12         30.2020    -6.8755    75.1629 H            1 CMP504   0.0000
@<TRIPOS>BOND
     1    1    2       1
     2    1    3       2
     3    1    4       1
     4    1    9       1
     5    4    5       1
     6    5    6       1
     7    6    7       1
     8    6    8       1
     9    7   12       1
    10    8    9       1
    11    8   10       1
    12   10   11       1
    13   10   12       1
    14   12   13       1
    15   13   14       1
    16   13   22       1
    17   14   15       2
    18   15   16       1
    19   16   17      ar
    20   16   22      ar
    21   17   18       1
    22   17   19      ar
    23   19   20      ar
    24   20   21      ar
    25   21   22      ar
    26    2   23       1
    27    5   24       1
    28    5   25       1
    29    6   26       1
    30    8   27       1
    31   10   28       1
    32   11   29       1
    33   12   30       1
    34   14   31       1
    35   18   32       1
    36   18   33       1
    37   20   34       1
@<TRIPOS>SUBSTRUCTURE
     1 CMP504      1 GROUP             4 B     CMP     0 **** CMP B 504
