@<TRIPOS>MOLECULE
4udr_FAD_1_ligand
   84    89     1     0     0
SMALL
NO_CHARGES


@<TRIPOS>ATOM
     1 PA          35.1970    12.3620    40.6960 P.3          1 FAD700   0.0000
     2 O1A         36.6250    12.7510    40.8470 O.co2        1 FAD700   0.0000
     3 O2A         34.5620    12.7760    39.4000 O.co2        1 FAD700  -1.0000
     4 O5B         35.2100    10.7910    40.8700 O.3          1 FAD700   0.0000
     5 C5B         34.0920     9.9130    40.6030 C.3          1 FAD700   0.0000
     6 C4B         34.6900     8.6530    39.9870 C.3          1 FAD700   0.0000
     7 O4B         33.6070     7.6460    40.0460 O.3          1 FAD700   0.0000
     8 C3B         35.2000     8.7220    38.4900 C.3          1 FAD700   0.0000
     9 O3B         36.5770     8.3800    38.3770 O.3          1 FAD700   0.0000
    10 C2B         34.2800     7.7240    37.8150 C.3          1 FAD700   0.0000
    11 O2B         34.7680     7.1400    36.6000 O.3          1 FAD700   0.0000
    12 C1B         33.7870     6.7820    38.8640 C.3          1 FAD700   0.0000
    13 N9A         32.4650     6.1650    38.6480 N.pl3        1 FAD700   0.0000
    14 C8A         31.2840     6.8060    38.4660 C.2          1 FAD700   0.0000
    15 N7A         30.3040     5.8890    38.3690 N.2          1 FAD700   0.0000
    16 C5A         30.8560     4.6460    38.5690 C.ar         1 FAD700   0.0000
    17 C6A         30.3780     3.3750    38.6290 C.ar         1 FAD700   0.0000
    18 N6A         29.0860     3.0980    38.4280 N.pl3        1 FAD700   0.0000
    19 N1A         31.2040     2.3700    38.8410 N.ar         1 FAD700   0.0000
    20 C2A         32.5540     2.5750    38.9970 C.ar         1 FAD700   0.0000
    21 N3A         33.1120     3.8060    38.9660 N.ar         1 FAD700   0.0000
    22 C4A         32.2700     4.8450    38.7260 C.ar         1 FAD700   0.0000
    23 N1          38.3520    21.3700    40.6710 N.2          1 FAD700   0.0000
    24 C2          39.4100    22.0690    41.1760 C.2          1 FAD700   0.0000
    25 O2          39.5660    22.2120    42.4110 O.2          1 FAD700   0.0000
    26 N3          40.3450    22.6390    40.3910 N.pl3        1 FAD700   0.0000
    27 C4          40.2190    22.6100    39.0370 C.2          1 FAD700   0.0000
    28 O4          41.1320    23.1930    38.3810 O.2          1 FAD700   0.0000
    29 C4X         39.1280    21.9430    38.4920 C.2          1 FAD700   0.0000
    30 N5          38.9210    21.9120    37.1340 N.2          1 FAD700   0.0000
    31 C5X         38.0860    20.9590    36.6140 C.ar         1 FAD700   0.0000
    32 C6          38.0430    20.6730    35.2310 C.ar         1 FAD700   0.0000
    33 C7          37.2400    19.6150    34.7790 C.ar         1 FAD700   0.0000
    34 C7M         37.1900    19.2890    33.3120 C.3          1 FAD700   0.0000
    35 C8          36.4460    18.8940    35.6640 C.ar         1 FAD700   0.0000
    36 C8M         35.6210    17.7310    35.1780 C.3          1 FAD700   0.0000
    37 C9          36.4670    19.1020    37.0420 C.ar         1 FAD700   0.0000
    38 C9A         37.2370    20.1620    37.5110 C.ar         1 FAD700   0.0000
    39 N10         37.2450    20.4780    38.8760 N.pl3        1 FAD700   0.0000
    40 C10         38.1540    21.4100    39.3320 C.2          1 FAD700   0.0000
    41 C1'         36.3840    19.7240    39.8130 C.3          1 FAD700   0.0000
    42 C2'         36.9800    18.6470    40.6570 C.3          1 FAD700   0.0000
    43 O2'         38.0660    18.0420    39.9720 O.3          1 FAD700   0.0000
    44 C3'         35.7730    17.7110    41.0490 C.3          1 FAD700   0.0000
    45 O3'         34.8380    18.5020    41.8000 O.3          1 FAD700   0.0000
    46 C4'         36.2880    16.5600    41.8970 C.3          1 FAD700   0.0000
    47 O4'         37.1100    15.7700    41.0150 O.3          1 FAD700   0.0000
    48 C5'         35.0600    15.8310    42.5240 C.3          1 FAD700   0.0000
    49 O5'         35.5670    14.6260    43.0940 O.3          1 FAD700   0.0000
    50 P           34.6500    13.3540    43.3080 P.3          1 FAD700   0.0000
    51 O1P         33.3590    13.8150    43.8480 O.co2        1 FAD700   0.0000
    52 O2P         35.3650    12.3020    44.0190 O.co2        1 FAD700  -1.0000
    53 O3P         34.2330    12.9290    41.8070 O.3          1 FAD700   0.0000
    54 H5B1        33.4554    10.3445    39.9638 H            1 FAD700   0.0000
    55 H5B2        33.6128     9.6915    41.4523 H            1 FAD700   0.0000
    56 H4B         35.4442     8.3431    40.5659 H            1 FAD700   0.0000
    57 H3B         35.0436     9.6368    38.1177 H            1 FAD700   0.0000
    58 H5          36.7175     7.4480    38.7111 H            1 FAD700   0.0000
    59 H2B         33.4765     8.2539    37.5438 H            1 FAD700   0.0000
    60 H7          35.6204     6.6507    36.7842 H            1 FAD700   0.0000
    61 H1B         34.4729     6.0782    39.0492 H            1 FAD700   0.0000
    62 H8A         31.1615     7.7970    38.4127 H            1 FAD700   0.0000
    63 H6A1        28.7635     2.1528    38.4786 H            1 FAD700   0.0000
    64 H6A2        28.4418     3.8360    38.2270 H            1 FAD700   0.0000
    65 H2A         33.1469     1.7824    39.1390 H            1 FAD700   0.0000
    66 H13         41.1369    23.0864    40.8066 H            1 FAD700   0.0000
    67 H14         38.5772    21.2168    34.5837 H            1 FAD700   0.0000
    68 H7M1        36.5751    18.5145    33.1634 H            1 FAD700   0.0000
    69 H7M2        36.8544    20.0831    32.8053 H            1 FAD700   0.0000
    70 H7M3        38.1073    19.0525    32.9916 H            1 FAD700   0.0000
    71 H8M1        35.1178    17.3351    35.9462 H            1 FAD700   0.0000
    72 H8M2        34.9746    18.0478    34.4839 H            1 FAD700   0.0000
    73 H8M3        36.2230    17.0380    34.7813 H            1 FAD700   0.0000
    74 H21         35.9513    18.5152    37.6663 H            1 FAD700   0.0000
    75 H1'1        35.6624    19.2990    39.2665 H            1 FAD700   0.0000
    76 H1'2        35.9795    20.3921    40.4375 H            1 FAD700   0.0000
    77 H2'         37.3337    19.0662    41.4932 H            1 FAD700   0.0000
    78 H25         38.1463    17.0857    40.2533 H            1 FAD700   0.0000
    79 H3'         35.3341    17.3566    40.2233 H            1 FAD700   0.0000
    80 H27         33.9125    18.1530    41.6529 H            1 FAD700   0.0000
    81 H4'         36.8585    16.9270    42.6317 H            1 FAD700   0.0000
    82 H29         36.7396    14.8430    40.9553 H            1 FAD700   0.0000
    83 H5'1        34.3819    15.6234    41.8189 H            1 FAD700   0.0000
    84 H5'2        34.6416    16.4008    43.2313 H            1 FAD700   0.0000
@<TRIPOS>BOND
     1    1    2      ar
     2    1    3      ar
     3    1    4       1
     4    1   53       1
     5    4    5       1
     6    5    6       1
     7    6    7       1
     8    6    8       1
     9    7   12       1
    10    8    9       1
    11    8   10       1
    12   10   11       1
    13   10   12       1
    14   12   13       1
    15   13   14       1
    16   13   22       1
    17   14   15       2
    18   15   16       1
    19   16   17      ar
    20   16   22      ar
    21   17   18       1
    22   17   19      ar
    23   19   20      ar
    24   20   21      ar
    25   21   22      ar
    26   23   24       1
    27   23   40       2
    28   24   25       2
    29   24   26       1
    30   26   27       1
    31   27   28       2
    32   27   29       1
    33   29   30       2
    34   29   40       1
    35   30   31       1
    36   31   32      ar
    37   31   38      ar
    38   32   33      ar
    39   33   34       1
    40   33   35      ar
    41   35   36       1
    42   35   37      ar
    43   37   38      ar
    44   38   39       1
    45   39   40       1
    46   39   41       1
    47   41   42       1
    48   42   43       1
    49   42   44       1
    50   44   45       1
    51   44   46       1
    52   46   47       1
    53   46   48       1
    54   48   49       1
    55   49   50       1
    56   50   51      ar
    57   50   52      ar
    58   50   53       1
    59   48   84       1
    60    5   54       1
    61    5   55       1
    62    6   56       1
    63    8   57       1
    64    9   58       1
    65   10   59       1
    66   11   60       1
    67   12   61       1
    68   14   62       1
    69   18   63       1
    70   18   64       1
    71   20   65       1
    72   26   66       1
    73   32   67       1
    74   34   68       1
    75   34   69       1
    76   34   70       1
    77   36   71       1
    78   36   72       1
    79   36   73       1
    80   37   74       1
    81   41   75       1
    82   41   76       1
    83   42   77       1
    84   43   78       1
    85   44   79       1
    86   45   80       1
    87   46   81       1
    88   47   82       1
    89   48   83       1
@<TRIPOS>SUBSTRUCTURE
     1 FAD700      1 GROUP             4 A     FAD     0 **** FAD A 700
