@<TRIPOS>MOLECULE
4pxn_NAD_1_ligand
   70    74     1     0     0
SMALL
NO_CHARGES


@<TRIPOS>ATOM
     1 PA         -71.7000   179.5910    40.2390 P.3          1 NAD601   0.0000
     2 O1A        -73.0190   180.2630    40.1490 O.co2        1 NAD601   0.0000
     3 O2A        -71.6950   178.5220    41.3280 O.co2        1 NAD601  -1.0000
     4 O5B        -71.3570   178.9390    38.8430 O.3          1 NAD601   0.0000
     5 C5B        -70.0300   178.7440    38.3030 C.3          1 NAD601   0.0000
     6 C4B        -70.1460   178.0250    36.9780 C.3          1 NAD601   0.0000
     7 O4B        -70.8960   176.8010    37.1420 O.3          1 NAD601   0.0000
     8 C3B        -70.8110   178.7740    35.8230 C.3          1 NAD601   0.0000
     9 O3B        -70.1460   178.4720    34.6000 O.3          1 NAD601   0.0000
    10 C2B        -72.2520   178.2520    35.8650 C.3          1 NAD601   0.0000
    11 O2B        -72.9290   178.3410    34.6160 O.3          1 NAD601   0.0000
    12 C1B        -72.0280   176.7990    36.2900 C.3          1 NAD601   0.0000
    13 N9A        -73.1340   176.1670    37.0100 N.pl3        1 NAD601   0.0000
    14 C8A        -73.9770   176.7480    37.9230 C.2          1 NAD601   0.0000
    15 N7A        -74.7920   175.9050    38.5080 N.2          1 NAD601   0.0000
    16 C5A        -74.4690   174.6830    37.9380 C.ar         1 NAD601   0.0000
    17 C6A        -74.9700   173.3790    38.1340 C.ar         1 NAD601   0.0000
    18 N6A        -75.9310   173.0790    39.0090 N.pl3        1 NAD601   0.0000
    19 N1A        -74.4370   172.3820    37.3890 N.ar         1 NAD601   0.0000
    20 C2A        -73.4680   172.6760    36.5140 C.ar         1 NAD601   0.0000
    21 N3A        -72.9120   173.8620    36.2480 N.ar         1 NAD601   0.0000
    22 C4A        -73.4580   174.8320    37.0020 C.ar         1 NAD601   0.0000
    23 O3         -70.5430   180.6450    40.5920 O.3          1 NAD601   0.0000
    24 PN         -70.2010   182.1460    40.1370 P.3          1 NAD601   0.0000
    25 O1N        -71.2690   183.0410    40.6430 O.co2        1 NAD601   0.0000
    26 O2N        -69.9020   182.1510    38.6860 O.co2        1 NAD601  -1.0000
    27 O5D        -68.8180   182.3960    40.8990 O.3          1 NAD601   0.0000
    28 C5D        -68.7460   182.8470    42.2720 C.3          1 NAD601   0.0000
    29 C4D        -68.3580   181.7130    43.1930 C.3          1 NAD601   0.0000
    30 O4D        -67.1460   181.0850    42.7180 O.3          1 NAD601   0.0000
    31 C3D        -68.0570   182.1140    44.6360 C.3          1 NAD601   0.0000
    32 O3D        -68.8520   181.3870    45.5680 O.3          1 NAD601   0.0000
    33 C2D        -66.5500   181.8500    44.7440 C.3          1 NAD601   0.0000
    34 O2D        -66.1050   181.4380    46.0310 O.3          1 NAD601   0.0000
    35 C1D        -66.3300   180.6820    43.7650 C.3          1 NAD601   0.0000
    36 N1N        -64.8720   180.6140    43.2740 N.ar         1 NAD601   1.0000
    37 C2N        -64.0410   179.6680    43.9110 C.ar         1 NAD601   0.0000
    38 C3N        -62.7240   179.5150    43.5030 C.ar         1 NAD601   0.0000
    39 C7N        -61.7730   178.5950    44.2420 C.2          1 NAD601   0.0000
    40 O7N        -60.6126   178.4438    43.8235 O.2          1 NAD601   0.0000
    41 N7N        -62.2031   178.0234    45.3621 N.am         1 NAD601   0.0000
    42 C4N        -62.2530   180.3090    42.4580 C.ar         1 NAD601   0.0000
    43 C5N        -63.0830   181.2420    41.8510 C.ar         1 NAD601   0.0000
    44 C6N        -64.3950   181.3760    42.2720 C.ar         1 NAD601   0.0000
    45 H5B1       -69.4861   178.1947    38.9373 H            1 NAD601   0.0000
    46 H5B2       -69.5885   179.6309    38.1670 H            1 NAD601   0.0000
    47 H4B        -69.2222   177.7772    36.6861 H            1 NAD601   0.0000
    48 H3B        -70.7939   179.7593    35.9930 H            1 NAD601   0.0000
    49 H5         -69.1876   178.7501    34.6642 H            1 NAD601   0.0000
    50 H2B        -72.7702   178.7373    36.5692 H            1 NAD601   0.0000
    51 H7         -73.8585   177.9855    34.7146 H            1 NAD601   0.0000
    52 H1B        -71.8191   176.2542    35.4778 H            1 NAD601   0.0000
    53 H8A        -73.9702   177.7275    38.1242 H            1 NAD601   0.0000
    54 H6A1       -76.2447   172.1341    39.1027 H            1 NAD601   0.0000
    55 H6A2       -76.3377   173.7990    39.5713 H            1 NAD601   0.0000
    56 H2A        -73.1117   171.9038    35.9880 H            1 NAD601   0.0000
    57 H5D1       -69.6396   183.2013    42.5475 H            1 NAD601   0.0000
    58 H5D2       -68.0631   183.5741    42.3423 H            1 NAD601   0.0000
    59 H4D        -69.0925   181.0344    43.1944 H            1 NAD601   0.0000
    60 H3D        -68.2291   183.0926    44.7488 H            1 NAD601   0.0000
    61 H17        -69.4074   182.0250    46.1014 H            1 NAD601   0.0000
    62 H2D        -66.0368   182.6536    44.4427 H            1 NAD601   0.0000
    63 H19        -66.6963   181.8372    46.7317 H            1 NAD601   0.0000
    64 H1D        -66.6304   179.8112    44.1543 H            1 NAD601   0.0000
    65 H2N        -64.4016   179.1078    44.6567 H            1 NAD601   0.0000
    66 H7N1       -61.5728   177.4876    45.9239 H            1 NAD601   0.0000
    67 H7N2       -63.1570   178.1290    45.6430 H            1 NAD601   0.0000
    68 H4N        -61.3095   180.2056    42.1431 H            1 NAD601   0.0000
    69 H5N        -62.7336   181.8164    41.1107 H            1 NAD601   0.0000
    70 H6N        -64.9928   182.0438    41.8285 H            1 NAD601   0.0000
@<TRIPOS>BOND
     1    1    2      ar
     2    1    3      ar
     3    1    4       1
     4    1   23       1
     5    4    5       1
     6    5    6       1
     7    6    7       1
     8    6    8       1
     9    7   12       1
    10    8    9       1
    11    8   10       1
    12   10   11       1
    13   10   12       1
    14   12   13       1
    15   13   14       1
    16   13   22       1
    17   14   15       2
    18   15   16       1
    19   16   17      ar
    20   16   22      ar
    21   17   18       1
    22   17   19      ar
    23   19   20      ar
    24   20   21      ar
    25   21   22      ar
    26   23   24       1
    27   24   25      ar
    28   24   26      ar
    29   24   27       1
    30   27   28       1
    31   28   29       1
    32   29   30       1
    33   29   31       1
    34   30   35       1
    35   31   32       1
    36   31   33       1
    37   33   34       1
    38   33   35       1
    39   35   36       1
    40   36   37      ar
    41   36   44      ar
    42   37   38      ar
    43   38   39       1
    44   38   42      ar
    45   39   40       2
    46   39   41      am
    47   42   43      ar
    48   43   44      ar
    49   44   70       1
    50    5   45       1
    51    5   46       1
    52    6   47       1
    53    8   48       1
    54    9   49       1
    55   10   50       1
    56   11   51       1
    57   12   52       1
    58   14   53       1
    59   18   54       1
    60   18   55       1
    61   20   56       1
    62   43   69       1
    63   28   57       1
    64   28   58       1
    65   29   59       1
    66   31   60       1
    67   32   61       1
    68   33   62       1
    69   34   63       1
    70   35   64       1
    71   37   65       1
    72   41   66       1
    73   41   67       1
    74   42   68       1
@<TRIPOS>SUBSTRUCTURE
     1 NAD601      1 GROUP             4 A     NAD     0 **** NAD A 601
