@<TRIPOS>MOLECULE
3wav_DWV_1_ligand
   40    42     1     0     0
SMALL
NO_CHARGES


@<TRIPOS>ATOM
     1 CAK         15.8010    39.1020    18.4880 C.3          1 DWV937   0.0000
     2 CAI         17.2150    39.1240    18.9550 C.3          1 DWV937   0.0000
     3 NAU         18.1130    39.6140    17.9490 N.4          1 DWV937   1.0000
     4 CAA         19.3870    40.0910    18.3310 C.3          1 DWV937   0.0000
     5 CAJ         18.0020    38.8380    16.7510 C.3          1 DWV937   0.0000
     6 CAL         16.6520    38.9990    16.1540 C.3          1 DWV937   0.0000
     7 NAV         15.6020    38.7970    17.0990 N.pl3        1 DWV937   0.0000
     8 CAR         14.3250    38.2520    16.7300 C.2          1 DWV937   0.0000
     9 SAN         13.6610    37.9520    15.1500 S.3          1 DWV937   0.0000
    10 NAM         13.3880    37.8250    17.6320 N.2          1 DWV937   0.0000
    11 CAS         12.2330    37.3050    17.0860 C.2          1 DWV937   0.0000
    12 OAB         11.1850    36.8230    17.8600 O.3          1 DWV937   0.0000
    13 CAT         12.1760    37.2820    15.6400 C.2          1 DWV937   0.0000
    14 CAE         10.9560    36.7350    14.8630 C.3          1 DWV937   0.0000
    15 CAO         11.0060    36.7020    13.3140 C.ar         1 DWV937   0.0000
    16 CAH         11.3600    37.8760    12.5330 C.ar         1 DWV937   0.0000
    17 CAQ         11.3590    37.8060    11.2010 C.ar         1 DWV937   0.0000
    18 CLD         11.8060    39.2210    10.3030 Cl           1 DWV937   0.0000
    19 CAP         10.9980    36.5940    10.5700 C.ar         1 DWV937   0.0000
    20 CLC         10.9640    36.4110     8.8810 Cl           1 DWV937   0.0000
    21 CAG         10.6370    35.4560    11.3550 C.ar         1 DWV937   0.0000
    22 CAF         10.6390    35.5280    12.6950 C.ar         1 DWV937   0.0000
    23 HAK1        15.4069    40.0043    18.6627 H            1 DWV937   0.0000
    24 HAK2        15.3119    38.4149    19.0253 H            1 DWV937   0.0000
    25 HAI1        17.4863    38.1940    19.2029 H            1 DWV937   0.0000
    26 HAI2        17.2790    39.7154    19.7589 H            1 DWV937   0.0000
    27 HAA1        19.8866    40.3940    17.5195 H            1 DWV937   0.0000
    28 HAA2        19.2798    40.8590    18.9625 H            1 DWV937   0.0000
    29 HAA3        19.8962    39.3576    18.7814 H            1 DWV937   0.0000
    30 HAJ1        18.1537    37.8736    16.9677 H            1 DWV937   0.0000
    31 HAJ2        18.6914    39.1446    16.0946 H            1 DWV937   0.0000
    32 HAL1        16.5484    38.3342    15.4142 H            1 DWV937   0.0000
    33 HAL2        16.5748    39.9246    15.7835 H            1 DWV937   0.0000
    34 HAB         10.3662    36.4548    17.4195 H            1 DWV937   0.0000
    35 HAE1        10.1694    37.2968    15.1191 H            1 DWV937   0.0000
    36 HAE2        10.8091    35.7953    15.1717 H            1 DWV937   0.0000
    37 HAH         11.6028    38.7308    12.9916 H            1 DWV937   0.0000
    38 HAG         10.3814    34.6012    10.9033 H            1 DWV937   0.0000
    39 HAF         10.3753    34.7330    13.2413 H            1 DWV937   0.0000
    40 HAU         17.6590    40.4623    17.6765 H            1 DWV937   0.0000
@<TRIPOS>BOND
     1    1    2       1
     2    1    7       1
     3    2    3       1
     4    3    4       1
     5    3    5       1
     6    5    6       1
     7    6    7       1
     8    7    8       1
     9    8    9       1
    10    8   10       2
    11    9   13       1
    12   10   11       1
    13   11   12       1
    14   11   13       2
    15   13   14       1
    16   14   15       1
    17   15   16      ar
    18   15   22      ar
    19   16   17      ar
    20   17   18       1
    21   17   19      ar
    22   19   20       1
    23   19   21      ar
    24   21   22      ar
    25    1   23       1
    26    1   24       1
    27    2   25       1
    28    2   26       1
    29    4   27       1
    30    4   28       1
    31    4   29       1
    32    5   30       1
    33    5   31       1
    34    6   32       1
    35    6   33       1
    36   12   34       1
    37   14   35       1
    38   14   36       1
    39   16   37       1
    40   21   38       1
    41   22   39       1
    42    3   40       1
@<TRIPOS>SUBSTRUCTURE
     1 DWV937      1 GROUP             4 A     DWV     0 **** DWV A 937
