@<TRIPOS>MOLECULE
3q87_SAM_1_ligand
   50    52     1     0     0
SMALL
NO_CHARGES


@<TRIPOS>ATOM
     1 N           33.9230    18.1800    14.7990 N.4          1 SAM300   1.0000
     2 CA          35.0640    18.7700    14.0860 C.3          1 SAM300   0.0000
     3 C           34.5610    19.9160    13.1960 C.2          1 SAM300   0.0000
     4 O           35.3050    20.8230    12.8210 O.co2        1 SAM300   0.0000
     5 OXT         33.3890    19.9650    12.8290 O.co2        1 SAM300  -1.0000
     6 CB          35.9430    17.7490    13.3120 C.3          1 SAM300   0.0000
     7 CG          35.4240    17.0240    12.0450 C.3          1 SAM300   0.0000
     8 SD          36.6290    16.0250    11.0640 S.3          1 SAM300   1.0000
     9 CE          35.9980    16.1820     9.3800 C.3          1 SAM300   0.0000
    10 C5'         36.1630    14.3150    11.4340 C.3          1 SAM300   0.0000
    11 C4'         36.6420    13.9620    12.8330 C.3          1 SAM300   0.0000
    12 O4'         36.3280    12.6080    13.1150 O.3          1 SAM300   0.0000
    13 C3'         38.1460    14.1190    13.0020 C.3          1 SAM300   0.0000
    14 O3'         38.3850    14.8370    14.1920 O.3          1 SAM300   0.0000
    15 C2'         38.6650    12.7020    13.1420 C.3          1 SAM300   0.0000
    16 O2'         39.7750    12.5790    14.0010 O.3          1 SAM300   0.0000
    17 C1'         37.4550    12.0050    13.7200 C.3          1 SAM300   0.0000
    18 N9          37.3870    10.5880    13.3960 N.pl3        1 SAM300   0.0000
    19 C8          37.8550     9.9230    12.2860 C.2          1 SAM300   0.0000
    20 N7          37.5420     8.6160    12.4310 N.2          1 SAM300   0.0000
    21 C5          36.8750     8.4610    13.6140 C.ar         1 SAM300   0.0000
    22 C6          36.3180     7.3720    14.2600 C.ar         1 SAM300   0.0000
    23 N6          36.3880     6.1680    13.7010 N.pl3        1 SAM300   0.0000
    24 N1          35.6880     7.5390    15.4820 N.ar         1 SAM300   0.0000
    25 C2          35.5990     8.7870    16.0760 C.ar         1 SAM300   0.0000
    26 N3          36.1540     9.8710    15.4240 N.ar         1 SAM300   0.0000
    27 C4          36.7760     9.7010    14.2280 C.ar         1 SAM300   0.0000
    28 H1          34.1016    17.2110    14.9698 H            1 SAM300   0.0000
    29 H2          33.7932    18.6537    15.6701 H            1 SAM300   0.0000
    30 HA          35.6519    19.1845    14.7807 H            1 SAM300   0.0000
    31 HB1         36.1848    17.0328    13.9667 H            1 SAM300   0.0000
    32 HB2         36.7687    18.2410    13.0361 H            1 SAM300   0.0000
    33 HG1         35.0500    17.7224    11.4347 H            1 SAM300   0.0000
    34 HG2         34.6918    16.4072    12.3340 H            1 SAM300   0.0000
    35 HE1         36.5864    15.6697     8.7544 H            1 SAM300   0.0000
    36 HE2         35.0680    15.8168     9.3371 H            1 SAM300   0.0000
    37 HE3         35.9900    17.1464     9.1156 H            1 SAM300   0.0000
    38 H5'1        36.5880    13.7006    10.7693 H            1 SAM300   0.0000
    39 H5'2        35.1686    14.2209    11.3866 H            1 SAM300   0.0000
    40 H4'         36.1764    14.5494    13.4950 H            1 SAM300   0.0000
    41 H3'         38.5538    14.5784    12.2129 H            1 SAM300   0.0000
    42 H15         38.0034    14.3337    14.9673 H            1 SAM300   0.0000
    43 H2'         38.8826    12.3245    12.2419 H            1 SAM300   0.0000
    44 H17         39.4573    12.4095    14.9339 H            1 SAM300   0.0000
    45 H1'         37.4240    12.1337    14.7112 H            1 SAM300   0.0000
    46 H19         38.3388    10.3323    11.5125 H            1 SAM300   0.0000
    47 H20         35.9869     5.3777    14.1641 H            1 SAM300   0.0000
    48 H21         36.8418     6.0526    12.8174 H            1 SAM300   0.0000
    49 H22         35.1425     8.9010    16.9584 H            1 SAM300   0.0000
    50 H23         33.0975    18.2737    14.2424 H            1 SAM300   0.0000
@<TRIPOS>BOND
     1    1    2       1
     2    2    3       1
     3    2    6       1
     4    3    4      ar
     5    3    5      ar
     6    6    7       1
     7    7    8       1
     8    8    9       1
     9    8   10       1
    10   10   11       1
    11   11   12       1
    12   11   13       1
    13   12   17       1
    14   13   14       1
    15   13   15       1
    16   15   16       1
    17   15   17       1
    18   17   18       1
    19   18   19       1
    20   18   27       1
    21   19   20       2
    22   20   21       1
    23   21   22      ar
    24   21   27      ar
    25   22   23       1
    26   22   24      ar
    27   24   25      ar
    28   25   26      ar
    29   26   27      ar
    30    1   28       1
    31    1   29       1
    32    2   30       1
    33    1   50       1
    34    6   31       1
    35    6   32       1
    36    7   33       1
    37    7   34       1
    38    9   35       1
    39    9   36       1
    40    9   37       1
    41   10   38       1
    42   10   39       1
    43   11   40       1
    44   13   41       1
    45   14   42       1
    46   15   43       1
    47   16   44       1
    48   17   45       1
    49   19   46       1
    50   23   47       1
    51   23   48       1
    52   25   49       1
@<TRIPOS>SUBSTRUCTURE
     1 SAM300      1 GROUP             4 B     SAM     0 **** SAM B 300
