@<TRIPOS>MOLECULE
1kqm_ANP_1_ligand
   44    46     1     0     0
SMALL
NO_CHARGES


@<TRIPOS>ATOM
     1 PG          12.1340    -8.2350    27.9850 P.3          1 ANP999   0.0000
     2 O1G         12.4610    -6.9070    27.3290 O.co2        1 ANP999   0.0000
     3 O2G         10.8520    -8.2490    28.7770 O.co2        1 ANP999  -1.0000
     4 O3G         13.2880    -8.7650    28.8120 O.co2        1 ANP999  -1.0000
     5 PB          13.0470   -10.3730    26.0280 P.3          1 ANP999   0.0000
     6 O1B         13.1420   -10.1940    24.5970 O.co2        1 ANP999   0.0000
     7 O2B         14.3910   -10.1450    26.6970 O.co2        1 ANP999  -1.0000
     8 N3B         11.9300    -9.3310    26.6980 N.3          1 ANP999   0.0000
     9 PA          12.9080   -12.9040    27.5360 P.3          1 ANP999   0.0000
    10 O1A         14.4560   -12.7810    27.7670 O.co2        1 ANP999   0.0000
    11 O2A         12.0850   -12.6410    28.7490 O.co2        1 ANP999  -1.0000
    12 O3A         12.5270   -11.8700    26.3600 O.3          1 ANP999   0.0000
    13 O5'         12.5980   -14.3760    26.9610 O.3          1 ANP999   0.0000
    14 C5'         11.2060   -14.7490    26.7950 C.3          1 ANP999   0.0000
    15 C4'         11.0130   -16.1790    27.3070 C.3          1 ANP999   0.0000
    16 O4'         10.9810   -17.0390    26.1570 O.3          1 ANP999   0.0000
    17 C3'         12.2440   -16.6800    28.0360 C.3          1 ANP999   0.0000
    18 O3'         12.1840   -16.2920    29.4040 O.3          1 ANP999   0.0000
    19 C2'         12.0790   -18.1260    27.8050 C.3          1 ANP999   0.0000
    20 O2'         10.8620   -18.5300    28.4790 O.3          1 ANP999   0.0000
    21 C1'         11.7820   -18.1190    26.3580 C.3          1 ANP999   0.0000
    22 N9          12.9090   -18.1510    25.4500 N.pl3        1 ANP999   0.0000
    23 C8          13.4480   -17.1860    24.7180 C.2          1 ANP999   0.0000
    24 N7          14.2680   -17.6410    23.7790 N.2          1 ANP999   0.0000
    25 C5          14.3170   -19.0010    24.0030 C.ar         1 ANP999   0.0000
    26 C6          15.0820   -20.0590    23.3930 C.ar         1 ANP999   0.0000
    27 N6          15.9490   -20.0360    22.3270 N.pl3        1 ANP999   0.0000
    28 N1          14.7670   -21.2530    23.9270 N.ar         1 ANP999   0.0000
    29 C2          13.9060   -21.4520    24.9620 C.ar         1 ANP999   0.0000
    30 N3          13.2460   -20.5010    25.5570 N.ar         1 ANP999   0.0000
    31 C4          13.5000   -19.2960    25.0490 C.ar         1 ANP999   0.0000
    32 H3B         11.6269    -8.7636    25.9323 H            1 ANP999   0.0000
    33 H5'1        10.9589   -14.7025    25.8271 H            1 ANP999   0.0000
    34 H5'2        10.6261   -14.1239    27.3175 H            1 ANP999   0.0000
    35 H4'         10.1870   -16.2683    27.8635 H            1 ANP999   0.0000
    36 H3'         13.0795   -16.3410    27.6036 H            1 ANP999   0.0000
    37 H6          12.9977   -16.6245    29.8808 H            1 ANP999   0.0000
    38 H2'         12.8802   -18.6708    28.0524 H            1 ANP999   0.0000
    39 H8          10.7158   -19.5100    28.3441 H            1 ANP999   0.0000
    40 H1'         11.2306   -18.9315    26.1686 H            1 ANP999   0.0000
    41 H10         13.2563   -16.2147    24.8590 H            1 ANP999   0.0000
    42 H11         16.4015   -20.8776    22.0323 H            1 ANP999   0.0000
    43 H12         16.1274   -19.1776    21.8460 H            1 ANP999   0.0000
    44 H13         13.7719   -22.3885    25.2860 H            1 ANP999   0.0000
@<TRIPOS>BOND
     1    1    2      ar
     2    1    3      ar
     3    1    4      ar
     4    1    8       1
     5    5    6      ar
     6    5    7      ar
     7    5    8       1
     8    5   12       1
     9    9   10      ar
    10    9   11      ar
    11    9   12       1
    12    9   13       1
    13   13   14       1
    14   14   15       1
    15   15   16       1
    16   15   17       1
    17   16   21       1
    18   17   18       1
    19   17   19       1
    20   19   20       1
    21   19   21       1
    22   21   22       1
    23   22   23       1
    24   22   31       1
    25   23   24       2
    26   24   25       1
    27   25   26      ar
    28   25   31      ar
    29   26   27       1
    30   26   28      ar
    31   28   29      ar
    32   29   30      ar
    33   30   31      ar
    34   29   44       1
    35   27   43       1
    36   27   42       1
    37    8   32       1
    38   23   41       1
    39   14   33       1
    40   14   34       1
    41   15   35       1
    42   17   36       1
    43   18   37       1
    44   19   38       1
    45   20   39       1
    46   21   40       1
@<TRIPOS>SUBSTRUCTURE
     1 ANP999      1 GROUP             4 A     ANP     0 **** ANP A 999
