@<TRIPOS>MOLECULE
2z4j_DHT_1_ligand
   51    54     1     0     0
SMALL
NO_CHARGES


@<TRIPOS>ATOM
     1 C1         -27.3210    28.3010     4.7120 C.3          1 DHT931   0.0000
     2 C2         -26.5750    27.0390     5.1580 C.3          1 DHT931   0.0000
     3 C3         -25.1250    27.1440     4.6130 C.2          1 DHT931   0.0000
     4 O3         -24.6580    26.1670     4.0530 O.2          1 DHT931   0.0000
     5 C4         -24.3870    28.4430     4.8150 C.3          1 DHT931   0.0000
     6 C5         -25.2140    29.6760     4.3100 C.3          1 DHT931   0.0000
     7 C6         -24.4760    31.0470     4.5340 C.3          1 DHT931   0.0000
     8 C7         -25.3410    32.2090     4.0000 C.3          1 DHT931   0.0000
     9 C8         -26.7580    32.2580     4.6800 C.3          1 DHT931   0.0000
    10 C9         -27.4820    30.8800     4.4560 C.3          1 DHT931   0.0000
    11 C10        -26.6470    29.6610     5.0140 C.3          1 DHT931   0.0000
    12 C11        -28.9110    30.9590     5.1070 C.3          1 DHT931   0.0000
    13 C12        -29.7930    32.1170     4.6560 C.3          1 DHT931   0.0000
    14 C13        -29.0750    33.4870     4.7640 C.3          1 DHT931   0.0000
    15 C14        -27.6460    33.3860     4.1100 C.3          1 DHT931   0.0000
    16 C15        -27.1340    34.8330     4.2470 C.3          1 DHT931   0.0000
    17 C16        -28.3920    35.6580     3.8670 C.3          1 DHT931   0.0000
    18 C17        -29.5770    34.6480     3.9270 C.3          1 DHT931   0.0000
    19 O17        -30.7240    35.3040     4.4920 O.3          1 DHT931   0.0000
    20 C18        -28.9850    33.8950     6.2950 C.3          1 DHT931   0.0000
    21 C19        -26.4830    29.8440     6.5760 C.3          1 DHT931   0.0000
    22 H1         -28.2129    28.2996     5.1643 H            1 DHT931   0.0000
    23 H2         -27.4492    28.2414     3.7220 H            1 DHT931   0.0000
    24 H3         -27.0230    26.2266     4.7848 H            1 DHT931   0.0000
    25 H4         -26.5623    26.9837     6.1564 H            1 DHT931   0.0000
    26 H5         -23.5241    28.4053     4.3111 H            1 DHT931   0.0000
    27 H6         -24.1987    28.5586     5.7903 H            1 DHT931   0.0000
    28 H7         -25.3569    29.5644     3.3266 H            1 DHT931   0.0000
    29 H8         -23.6019    31.0352     4.0485 H            1 DHT931   0.0000
    30 H9         -24.3125    31.1787     5.5117 H            1 DHT931   0.0000
    31 H10        -25.4611    32.0940     3.0139 H            1 DHT931   0.0000
    32 H11        -24.8678    33.0714     4.1798 H            1 DHT931   0.0000
    33 H12        -26.6400    32.4049     5.6621 H            1 DHT931   0.0000
    34 H13        -27.5984    30.7492     3.4714 H            1 DHT931   0.0000
    35 H14        -28.7915    31.0342     6.0970 H            1 DHT931   0.0000
    36 H15        -29.3912    30.1084     4.8928 H            1 DHT931   0.0000
    37 H16        -30.6123    32.1382     5.2290 H            1 DHT931   0.0000
    38 H17        -30.0565    31.9672     3.7030 H            1 DHT931   0.0000
    39 H18        -27.7741    33.2038     3.1351 H            1 DHT931   0.0000
    40 H19        -26.3782    35.0121     3.6172 H            1 DHT931   0.0000
    41 H20        -26.8411    35.0276     5.1831 H            1 DHT931   0.0000
    42 H21        -28.2989    36.0349     2.9454 H            1 DHT931   0.0000
    43 H22        -28.5329    36.4029     4.5191 H            1 DHT931   0.0000
    44 H23        -29.7932    34.3284     3.0044 H            1 DHT931   0.0000
    45 H24        -31.5579    34.8701     4.1507 H            1 DHT931   0.0000
    46 H25        -28.5233    34.7781     6.3780 H            1 DHT931   0.0000
    47 H26        -29.9069    33.9637     6.6764 H            1 DHT931   0.0000
    48 H27        -28.4682    33.2003     6.7953 H            1 DHT931   0.0000
    49 H28        -26.0472    30.7241     6.7646 H            1 DHT931   0.0000
    50 H29        -27.3830    29.8177     7.0110 H            1 DHT931   0.0000
    51 H30        -25.9151    29.1059     6.9403 H            1 DHT931   0.0000
@<TRIPOS>BOND
     1    1    2       1
     2    1   11       1
     3    2    3       1
     4    3    4       2
     5    3    5       1
     6    5    6       1
     7    6    7       1
     8    6   11       1
     9    7    8       1
    10    8    9       1
    11    9   10       1
    12    9   15       1
    13   10   11       1
    14   10   12       1
    15   11   21       1
    16   12   13       1
    17   13   14       1
    18   14   15       1
    19   14   18       1
    20   14   20       1
    21   15   16       1
    22   16   17       1
    23   17   18       1
    24   18   19       1
    25    1   22       1
    26    1   23       1
    27    2   24       1
    28    2   25       1
    29    5   26       1
    30    5   27       1
    31    6   28       1
    32    7   29       1
    33    7   30       1
    34    8   31       1
    35    8   32       1
    36    9   33       1
    37   10   34       1
    38   12   35       1
    39   12   36       1
    40   13   37       1
    41   13   38       1
    42   15   39       1
    43   16   40       1
    44   16   41       1
    45   17   42       1
    46   17   43       1
    47   18   44       1
    48   19   45       1
    49   20   46       1
    50   20   47       1
    51   20   48       1
    52   21   49       1
    53   21   50       1
    54   21   51       1
@<TRIPOS>SUBSTRUCTURE
     1 DHT931      1 GROUP             4 A     DHT     0 **** DHT A 931
