@<TRIPOS>MOLECULE
1l1r_9DA_1_ligand
   16    17     1     0     0
SMALL
NO_CHARGES


@<TRIPOS>ATOM
     1 N1           8.4250    32.4700    42.2730 N.ar         1 9DA201   0.0000
     2 C2           8.9410    33.6890    41.8430 C.ar         1 9DA201   0.0000
     3 N3           8.5680    34.2420    40.6810 N.ar         1 9DA201   0.0000
     4 C4           7.6510    33.4880    39.9930 C.ar         1 9DA201   0.0000
     5 C5           7.0990    32.2710    40.3600 C.ar         1 9DA201   0.0000
     6 C6           7.4850    31.6730    41.5960 C.ar         1 9DA201   0.0000
     7 N6           7.1210    30.5950    42.1250 N.pl3        1 9DA201   0.0000
     8 N7           6.2220    31.8720    39.3720 N.pl3        1 9DA201   0.0000
     9 C8           6.2400    32.8300    38.4170 C.2          1 9DA201   0.0000
    10 C9           7.1100    33.8470    38.7620 C.2          1 9DA201   0.0000
    11 H1           9.6079    34.1648    42.4166 H            1 9DA201   0.0000
    12 H2           6.4535    30.0114    41.6625 H            1 9DA201   0.0000
    13 H3           7.4984    30.3195    43.0091 H            1 9DA201   0.0000
    14 H4           5.6767    31.0338    39.3636 H            1 9DA201   0.0000
    15 H5           5.6982    32.8057    37.5768 H            1 9DA201   0.0000
    16 H6           7.3100    34.6727    38.2345 H            1 9DA201   0.0000
@<TRIPOS>BOND
     1    1    2      ar
     2    1    6      ar
     3    2    3      ar
     4    3    4      ar
     5    4    5      ar
     6    4   10       1
     7    5    6      ar
     8    5    8       1
     9    6    7       1
    10    8    9       1
    11    9   10       2
    12    2   11       1
    13    7   12       1
    14    7   13       1
    15    8   14       1
    16    9   15       1
    17   10   16       1
@<TRIPOS>SUBSTRUCTURE
     1 9DA201      1 GROUP             4 A     9DA     0 **** 9DA A 201
