@<TRIPOS>MOLECULE
4dxl_C5P_1_ligand
   33    34     1     0     0
SMALL
NO_CHARGES


@<TRIPOS>ATOM
     1 O3P        -17.8980    15.3980    -2.6420 O.co2        1 C5P401   0.0000
     2 P          -17.3340    14.8460    -3.9300 P.3          1 C5P401   0.0000
     3 O1P        -16.0520    15.5000    -4.3430 O.co2        1 C5P401  -1.0000
     4 O2P        -17.3370    13.3340    -4.0710 O.co2        1 C5P401  -1.0000
     5 O5'        -18.4270    15.3380    -5.0100 O.3          1 C5P401   0.0000
     6 C5'        -18.8080    16.7150    -5.0490 C.3          1 C5P401   0.0000
     7 C4'        -19.9330    16.8870    -6.0400 C.3          1 C5P401   0.0000
     8 O4'        -19.4400    16.7420    -7.3820 O.3          1 C5P401   0.0000
     9 C3'        -21.0760    15.8910    -5.8830 C.3          1 C5P401   0.0000
    10 O3'        -22.0840    16.3020    -4.9490 O.3          1 C5P401   0.0000
    11 C2'        -21.5970    15.8570    -7.2980 C.3          1 C5P401   0.0000
    12 O2'        -22.4730    16.9720    -7.5220 O.3          1 C5P401   0.0000
    13 C1'        -20.3550    16.0220    -8.1660 C.3          1 C5P401   0.0000
    14 N1         -19.7760    14.7100    -8.5220 N.pl3        1 C5P401   0.0000
    15 C2         -20.4860    13.9240    -9.4140 C.2          1 C5P401   0.0000
    16 N3         -20.0210    12.7090    -9.7790 N.2          1 C5P401   0.0000
    17 C4         -18.8330    12.2530    -9.2980 C.2          1 C5P401   0.0000
    18 C5         -18.0940    13.0290    -8.4130 C.2          1 C5P401   0.0000
    19 C6         -18.5870    14.2700    -8.0300 C.2          1 C5P401   0.0000
    20 O2         -21.5710    14.3600    -9.8520 O.2          1 C5P401   0.0000
    21 N4         -18.3990    11.0320    -9.6670 N.pl3        1 C5P401   0.0000
    22 H5'1       -18.0259    17.2712    -5.3301 H            1 C5P401   0.0000
    23 H5'2       -19.1136    17.0039    -4.1417 H            1 C5P401   0.0000
    24 H4'        -20.3036    17.8102    -5.9386 H            1 C5P401   0.0000
    25 H3'        -20.7167    14.9934    -5.6277 H            1 C5P401   0.0000
    26 H5         -22.7971    15.6028    -4.8991 H            1 C5P401   0.0000
    27 H2'        -22.0590    14.9914    -7.4911 H            1 C5P401   0.0000
    28 H7         -21.9715    17.8246    -7.3752 H            1 C5P401   0.0000
    29 H1'        -20.5789    16.5361    -8.9940 H            1 C5P401   0.0000
    30 H9         -17.2198    12.6987    -8.0570 H            1 C5P401   0.0000
    31 H10        -18.0678    14.8395    -7.3928 H            1 C5P401   0.0000
    32 H11        -17.5274    10.6853    -9.3204 H            1 C5P401   0.0000
    33 H12        -18.9485    10.4725   -10.2875 H            1 C5P401   0.0000
@<TRIPOS>BOND
     1    1    2      ar
     2    2    3      ar
     3    2    4      ar
     4    2    5       1
     5    5    6       1
     6    6    7       1
     7    7    8       1
     8    7    9       1
     9    8   13       1
    10    9   10       1
    11    9   11       1
    12   11   12       1
    13   11   13       1
    14   13   14       1
    15   14   15       1
    16   14   19       1
    17   15   16       1
    18   15   20       2
    19   16   17       2
    20   17   18       1
    21   17   21       1
    22   18   19       2
    23   21   33       1
    24   21   32       1
    25    6   22       1
    26    6   23       1
    27    7   24       1
    28    9   25       1
    29   10   26       1
    30   11   27       1
    31   12   28       1
    32   13   29       1
    33   18   30       1
    34   19   31       1
@<TRIPOS>SUBSTRUCTURE
     1 C5P401      1 GROUP             4 A     C5P     0 **** C5P A 401
