@<TRIPOS>MOLECULE
3vuf_ADP_1_ligand
   39    41     1     0     0
SMALL
NO_CHARGES


@<TRIPOS>ATOM
     1 PB         -52.8470   -14.7760    39.6500 P.3          1 ADP701   0.0000
     2 O1B        -51.9150   -15.8500    39.1040 O.co2        1 ADP701   0.0000
     3 O2B        -54.1330   -15.3540    40.2130 O.co2        1 ADP701  -1.0000
     4 O3B        -52.1810   -13.7830    40.5970 O.co2        1 ADP701  -1.0000
     5 PA         -54.5090   -12.8240    38.2980 P.3          1 ADP701   0.0000
     6 O1A        -55.8100   -13.5880    38.0550 O.co2        1 ADP701   0.0000
     7 O2A        -54.3490   -11.9510    39.5330 O.co2        1 ADP701  -1.0000
     8 O3A        -53.2770   -13.8930    38.3340 O.3          1 ADP701   0.0000
     9 O5'        -54.2550   -11.8680    37.0070 O.3          1 ADP701   0.0000
    10 C5'        -54.9560   -10.6220    36.8120 C.3          1 ADP701   0.0000
    11 C4'        -56.4180   -10.6130    37.3400 C.3          1 ADP701   0.0000
    12 O4'        -56.7060    -9.4790    38.1960 O.3          1 ADP701   0.0000
    13 C3'        -57.4890   -10.5900    36.2430 C.3          1 ADP701   0.0000
    14 O3'        -58.4230   -11.6610    36.4610 O.3          1 ADP701   0.0000
    15 C2'        -58.1480    -9.2010    36.2980 C.3          1 ADP701   0.0000
    16 O2'        -59.5910    -9.2450    36.2880 O.3          1 ADP701   0.0000
    17 C1'        -57.5980    -8.5270    37.5640 C.3          1 ADP701   0.0000
    18 N9         -56.8600    -7.2380    37.2960 N.pl3        1 ADP701   0.0000
    19 C8         -55.5500    -7.1440    36.9350 C.2          1 ADP701   0.0000
    20 N7         -55.1490    -5.8530    36.7710 N.2          1 ADP701   0.0000
    21 C5         -56.2260    -5.0760    37.0420 C.ar         1 ADP701   0.0000
    22 C6         -56.4980    -3.6110    37.0730 C.ar         1 ADP701   0.0000
    23 N6         -55.5070    -2.7370    36.7680 N.pl3        1 ADP701   0.0000
    24 N1         -57.7460    -3.1920    37.4070 N.ar         1 ADP701   0.0000
    25 C2         -58.7190    -4.0800    37.7070 C.ar         1 ADP701   0.0000
    26 N3         -58.5450    -5.4180    37.7070 N.ar         1 ADP701   0.0000
    27 C4         -57.3470    -5.9820    37.3900 C.ar         1 ADP701   0.0000
    28 H5'1       -54.9772   -10.4261    35.8316 H            1 ADP701   0.0000
    29 H5'2       -54.4490    -9.9015    37.2851 H            1 ADP701   0.0000
    30 H4'        -56.5523   -11.4441    37.8797 H            1 ADP701   0.0000
    31 H3'        -57.0508   -10.7115    35.3524 H            1 ADP701   0.0000
    32 H5         -57.9571   -12.4234    36.9101 H            1 ADP701   0.0000
    33 H2'        -57.8431    -8.6758    35.5035 H            1 ADP701   0.0000
    34 H7         -59.9051    -9.6914    35.4501 H            1 ADP701   0.0000
    35 H1'        -58.3592    -8.3387    38.1846 H            1 ADP701   0.0000
    36 H9         -54.9505    -7.9337    36.8051 H            1 ADP701   0.0000
    37 H10        -55.6846    -1.7531    36.7874 H            1 ADP701   0.0000
    38 H11        -54.5986    -3.0764    36.5237 H            1 ADP701   0.0000
    39 H12        -59.6231    -3.7240    37.9434 H            1 ADP701   0.0000
@<TRIPOS>BOND
     1    1    2      ar
     2    1    3      ar
     3    1    4      ar
     4    1    8       1
     5    5    6      ar
     6    5    7      ar
     7    5    8       1
     8    5    9       1
     9    9   10       1
    10   10   11       1
    11   11   12       1
    12   11   13       1
    13   12   17       1
    14   13   14       1
    15   13   15       1
    16   15   16       1
    17   15   17       1
    18   17   18       1
    19   18   19       1
    20   18   27       1
    21   19   20       2
    22   20   21       1
    23   21   22      ar
    24   21   27      ar
    25   22   23       1
    26   22   24      ar
    27   24   25      ar
    28   25   26      ar
    29   26   27      ar
    30   25   39       1
    31   23   38       1
    32   23   37       1
    33   10   28       1
    34   10   29       1
    35   11   30       1
    36   13   31       1
    37   14   32       1
    38   15   33       1
    39   16   34       1
    40   17   35       1
    41   19   36       1
@<TRIPOS>SUBSTRUCTURE
     1 ADP701      1 GROUP             4 A     ADP     0 **** ADP A 701
