@<TRIPOS>MOLECULE
3pe6_ZYH_1_ligand
   64    69     1     0     0
SMALL
NO_CHARGES


@<TRIPOS>ATOM
     1 O01        -12.8940    20.8220    -4.9860 O.2          1 ZYH304   0.0000
     2 C02        -12.4020    20.7480    -6.1150 C.2          1 ZYH304   0.0000
     3 C03        -10.9200    20.7120    -6.3120 C.ar         1 ZYH304   0.0000
     4 C04        -10.3850    21.4620    -7.3850 C.ar         1 ZYH304   0.0000
     5 C05         -8.9980    21.5270    -7.6330 C.ar         1 ZYH304   0.0000
     6 C06         -8.1690    20.7870    -6.7840 C.ar         1 ZYH304   0.0000
     7 N07         -6.7570    20.5930    -6.7650 N.2          1 ZYH304   0.0000
     8 C08         -6.5480    19.7470    -5.8030 C.2          1 ZYH304   0.0000
     9 O09         -7.7070    19.3750    -5.1310 O.2          1 ZYH304   0.0000
    10 C10         -8.7670    20.0340    -5.7800 C.ar         1 ZYH304   0.0000
    11 C11        -10.1100    19.9530    -5.4880 C.ar         1 ZYH304   0.0000
    12 C12         -5.2880    19.0460    -5.2970 C.3          1 ZYH304   0.0000
    13 C13         -4.1780    19.2390    -6.3000 C.3          1 ZYH304   0.0000
    14 C14         -2.8210    18.7790    -5.7760 C.3          1 ZYH304   0.0000
    15 C15         -2.5000    19.4340    -4.4520 C.3          1 ZYH304   0.0000
    16 C16         -3.6050    19.0990    -3.4400 C.3          1 ZYH304   0.0000
    17 C17         -4.9790    19.6090    -3.9510 C.3          1 ZYH304   0.0000
    18 N18        -13.1870    20.6870    -7.1920 N.am         1 ZYH304   0.0000
    19 C19        -14.6700    20.6010    -7.3120 C.3          1 ZYH304   0.0000
    20 C20        -14.4350    19.9150    -8.6930 C.3          1 ZYH304   0.0000
    21 C21        -12.9320    20.2310    -8.5750 C.3          1 ZYH304   0.0000
    22 N22        -15.1290    20.4600    -9.8480 N.4          1 ZYH304   1.0000
    23 C23        -14.5170    19.9880   -11.0920 C.3          1 ZYH304   0.0000
    24 C24        -15.1860    20.5900   -12.2890 C.3          1 ZYH304   0.0000
    25 N25        -16.6010    20.2620   -12.2430 N.pl3        1 ZYH304   0.0000
    26 C26        -17.3060    20.7080   -10.9980 C.3          1 ZYH304   0.0000
    27 C27        -16.5730    20.2070    -9.7740 C.3          1 ZYH304   0.0000
    28 C28        -17.2850    19.7100   -13.3360 C.ar         1 ZYH304   0.0000
    29 N29        -16.4940    19.2310   -14.3140 N.ar         1 ZYH304   0.0000
    30 C30        -17.1490    18.6660   -15.3150 C.ar         1 ZYH304   0.0000
    31 C31        -18.5180    18.5320   -15.3840 C.ar         1 ZYH304   0.0000
    32 C32        -19.2390    19.0490   -14.3440 C.ar         1 ZYH304   0.0000
    33 N33        -18.6490    19.6420   -13.2840 N.ar         1 ZYH304   0.0000
    34 H1         -11.0089    21.9614    -7.9861 H            1 ZYH304   0.0000
    35 H2          -8.6250    22.0764    -8.3807 H            1 ZYH304   0.0000
    36 H3         -10.4695    19.3921    -4.7423 H            1 ZYH304   0.0000
    37 H4          -5.4755    18.0681    -5.2046 H            1 ZYH304   0.0000
    38 H5          -4.1195    20.2107    -6.5287 H            1 ZYH304   0.0000
    39 H6          -4.3968    18.7153    -7.1234 H            1 ZYH304   0.0000
    40 H7          -2.1145    19.0220    -6.4407 H            1 ZYH304   0.0000
    41 H8          -2.8369    17.7866    -5.6543 H            1 ZYH304   0.0000
    42 H9          -2.4475    20.4252    -4.5735 H            1 ZYH304   0.0000
    43 H10         -1.6228    19.0926    -4.1142 H            1 ZYH304   0.0000
    44 H11         -3.3952    19.5371    -2.5659 H            1 ZYH304   0.0000
    45 H12         -3.6474    18.1078    -3.3144 H            1 ZYH304   0.0000
    46 H13         -5.6919    19.3297    -3.3077 H            1 ZYH304   0.0000
    47 H14         -4.9563    20.6070    -4.0108 H            1 ZYH304   0.0000
    48 H15        -15.1386    21.4833    -7.3568 H            1 ZYH304   0.0000
    49 H16        -15.1129    20.0227    -6.6269 H            1 ZYH304   0.0000
    50 H17        -14.5912    18.9296    -8.6246 H            1 ZYH304   0.0000
    51 H18        -12.3334    19.4330    -8.6452 H            1 ZYH304   0.0000
    52 H19        -12.6083    20.9460    -9.1947 H            1 ZYH304   0.0000
    53 H20        -14.5997    18.9925   -11.1387 H            1 ZYH304   0.0000
    54 H21        -13.5500    20.2427   -11.0966 H            1 ZYH304   0.0000
    55 H22        -14.7809    20.2179   -13.1241 H            1 ZYH304   0.0000
    56 H23        -15.0698    21.5831   -12.2760 H            1 ZYH304   0.0000
    57 H24        -18.2373    20.3437   -10.9974 H            1 ZYH304   0.0000
    58 H25        -17.3390    21.7072   -10.9772 H            1 ZYH304   0.0000
    59 H26        -16.9399    20.6702    -8.9673 H            1 ZYH304   0.0000
    60 H27        -16.7231    19.2219    -9.6898 H            1 ZYH304   0.0000
    61 H28        -16.6100    18.3097   -16.0783 H            1 ZYH304   0.0000
    62 H29        -18.9626    18.0789   -16.1567 H            1 ZYH304   0.0000
    63 H30        -20.2367    18.9859   -14.3691 H            1 ZYH304   0.0000
    64 H31        -15.0054    21.4520    -9.8207 H            1 ZYH304   0.0000
@<TRIPOS>BOND
     1    1    2       2
     2    2    3       1
     3    2   18      am
     4    3    4      ar
     5    3   11      ar
     6    4    5      ar
     7    5    6      ar
     8    6    7       1
     9    6   10      ar
    10    7    8       2
    11    8    9       1
    12    8   12       1
    13    9   10       1
    14   10   11      ar
    15   12   13       1
    16   12   17       1
    17   13   14       1
    18   14   15       1
    19   15   16       1
    20   16   17       1
    21   18   19       1
    22   18   21       1
    23   19   20       1
    24   20   21       1
    25   20   22       1
    26   22   23       1
    27   22   27       1
    28   23   24       1
    29   24   25       1
    30   25   26       1
    31   25   28       1
    32   26   27       1
    33   28   29      ar
    34   28   33      ar
    35   29   30      ar
    36   30   31      ar
    37   31   32      ar
    38   32   33      ar
    39    4   34       1
    40    5   35       1
    41   11   36       1
    42   12   37       1
    43   13   38       1
    44   13   39       1
    45   14   40       1
    46   14   41       1
    47   15   42       1
    48   15   43       1
    49   16   44       1
    50   16   45       1
    51   17   46       1
    52   17   47       1
    53   19   48       1
    54   19   49       1
    55   20   50       1
    56   21   51       1
    57   21   52       1
    58   23   53       1
    59   23   54       1
    60   24   55       1
    61   24   56       1
    62   26   57       1
    63   26   58       1
    64   27   59       1
    65   27   60       1
    66   30   61       1
    67   31   62       1
    68   32   63       1
    69   22   64       1
@<TRIPOS>SUBSTRUCTURE
     1 ZYH304      1 GROUP             4 A     ZYH     0 **** ZYH A 304
