@<TRIPOS>MOLECULE
./coach420/1sby/ligand.pdb
 49 49 0 0 0
SMALL
GASTEIGER

@<TRIPOS>ATOM
      1  PA        15.7570  -11.4520   33.7480 P.3   1255  NAD1255     0.2189
      2  O1A       16.5330  -12.1130   32.6870 O.2   1255  NAD1255    -0.5170
      3  O2A       16.0720  -11.7620   35.1740 O.3   1255  NAD1255    -0.4371
      4  O5B       14.1870  -11.7470   33.5530 O.3   1255  NAD1255    -0.3112
      5  C5B       13.6480  -11.8760   32.2250 C.3   1255  NAD1255     0.1813
      6  C4B       12.1780  -12.2600   32.3720 C.3   1255  NAD1255     0.1801
      7  O4B       11.6120  -12.3350   31.0590 O.3   1255  NAD1255    -0.3306
      8  C3B       12.0130  -13.6480   33.0060 C.3   1255  NAD1255     0.2161
      9  O3B       10.7670  -13.6450   33.7220 O.3   1255  NAD1255    -0.2175
     10  C2B       11.9540  -14.5270   31.7600 C.3   1255  NAD1255     0.2337
     11  O2B       11.3760  -15.8070   31.9580 O.3   1255  NAD1255    -0.2155
     12  C1B       11.0610  -13.6360   30.8930 C.3   1255  NAD1255     0.2409
     13  N9A       11.1070  -13.9970   29.4700 N.ar  1255  NAD1255    -0.2693
     14  C8A       12.1740  -14.0030   28.6720 C.ar  1255  NAD1255     0.1816
     15  N7A       11.8360  -14.5330   27.4980 N.ar  1255  NAD1255    -0.2193
     16  C5A       10.5440  -14.8630   27.5390 C.ar  1255  NAD1255     0.1518
     17  C6A        9.6460  -15.4050   26.6210 C.ar  1255  NAD1255     0.1919
     18  N6A       10.0000  -15.8130   25.4070 N.pl3 1255  NAD1255    -0.1054
     19  N1A        8.3180  -15.5260   27.0390 N.ar  1255  NAD1255    -0.2040
     20  C2A        7.9490  -15.1310   28.3140 C.ar  1255  NAD1255     0.2016
     21  N3A        8.8070  -14.6590   29.1990 N.ar  1255  NAD1255    -0.2048
     22  C4A       10.0730  -14.5130   28.8000 C.ar  1255  NAD1255     0.1692
     23  O3        15.8920   -9.8740   33.5220 O.3   1255  NAD1255    -0.2703
     24  PN        15.2740   -8.6270   34.3020 P.3   1255  NAD1255     0.2189
     25  O1N       16.3800   -7.6350   34.4700 O.2   1255  NAD1255    -0.5170
     26  O2N       14.4950   -9.0490   35.4790 O.3   1255  NAD1255    -0.4371
     27  O5D       14.3120   -7.9930   33.1760 O.3   1255  NAD1255    -0.3112
     28  C5D       12.8890   -8.0100   33.2780 C.3   1255  NAD1255     0.1813
     29  C4D       12.3530   -6.8990   32.3640 C.3   1255  NAD1255     0.1799
     30  O4D       12.9180   -5.6540   32.7760 O.3   1255  NAD1255    -0.3327
     31  C3D       12.7650   -7.1520   30.9120 C.3   1255  NAD1255     0.2158
     32  O3D       11.7430   -6.6310   30.0410 O.3   1255  NAD1255    -0.2175
     33  C2D       13.9990   -6.2300   30.7820 C.3   1255  NAD1255     0.2309
     34  O2D       14.1670   -5.8640   29.4180 O.3   1255  NAD1255    -0.2158
     35  C1D       13.5310   -5.0610   31.6310 C.3   1255  NAD1255     0.2263
     36  N1N       14.5930   -4.1410   32.0440 N.pl3 1255  NAD1255    -0.2787
     37  C2N       15.7100   -4.5850   32.7680 C.3   1255  NAD1255     0.1244
     38  C3N       16.6300   -3.6550   33.2280 C.2   1255  NAD1255     0.0544
     39  C7N       17.8630   -4.0810   34.0350 C.2   1255  NAD1255     0.2818
     40  O7N       18.7570   -3.2550   34.2240 O.2   1255  NAD1255    -0.2670
     41  N7N       17.9040   -5.2910   34.5650 N.am  1255  NAD1255    -0.0839
     42  C4N       16.4470   -2.2940   33.0000 C.2   1255  NAD1255     0.0033
     43  C5N       15.3170   -1.8660   32.3140 C.2   1255  NAD1255     0.0157
     44  C6N       14.3870   -2.7740   31.8220 C.2   1255  NAD1255     0.0633
     45  C2        18.3860   -1.6680   30.4180 C.3   1256  ETF1256     0.2175
     46  O         17.0880   -2.0350   29.9280 O.3   1256  ETF1256    -0.2175
     47  F1        18.6470   -3.9390   31.0330 F     1256  ETF1256     0.0000
     48  F2        19.4470   -3.2970   29.1100 F     1256  ETF1256     0.0000
     49  F3        20.4330   -2.6830   30.9010 F     1256  ETF1256     0.0000
@<TRIPOS>BOND
     1     1     2    2
     2     1    23    1
     3     1     4    1
     4     1     3    1
     5     4     5    1
     6     5     6    1
     7     6     7    1
     8     6     8    1
     9     7    12    1
    10     8    10    1
    11     8     9    1
    12    10    12    1
    13    10    11    1
    14    12    13    1
    15    13    14   ar
    16    13    22   ar
    17    14    15   ar
    18    15    16   ar
    19    16    17   ar
    20    16    22   ar
    21    17    18    1
    22    17    19   ar
    23    19    20   ar
    24    20    21   ar
    25    21    22   ar
    26    23    24    1
    27    24    27    1
    28    24    25    2
    29    24    26    1
    30    27    28    1
    31    28    29    1
    32    29    31    1
    33    29    30    1
    34    30    35    1
    35    31    32    1
    36    31    33    1
    37    33    34    1
    38    33    35    1
    39    35    36    1
    40    36    44    1
    41    36    37    1
    42    37    38    1
    43    38    42    2
    44    38    39    1
    45    39    40    2
    46    39    41   am
    47    42    43    1
    48    43    44    2
    49    45    46    1
