@<TRIPOS>MOLECULE
2e0n_SAH_1_ligand
   46    48     1     0     0
SMALL
NO_CHARGES


@<TRIPOS>ATOM
     1 N           28.1320    11.5610    37.6080 N.4          1 SAH300   1.0000
     2 CA          26.6770    11.8390    37.4520 C.3          1 SAH300   0.0000
     3 CB          26.1270    11.9710    38.8820 C.3          1 SAH300   0.0000
     4 CG          26.1420    10.6780    39.6790 C.3          1 SAH300   0.0000
     5 SD          25.5800    10.9150    41.4110 S.3          1 SAH300   0.0000
     6 C           26.4760    13.1480    36.7030 C.2          1 SAH300   0.0000
     7 O           27.4850    13.6980    36.1960 O.co2        1 SAH300   0.0000
     8 OXT         25.3450    13.6610    36.5880 O.co2        1 SAH300  -1.0000
     9 C5'         23.8660    10.3930    41.0770 C.3          1 SAH300   0.0000
    10 C4'         22.7410    11.4110    40.8960 C.3          1 SAH300   0.0000
    11 O4'         22.7150    11.9200    39.6000 O.3          1 SAH300   0.0000
    12 C3'         21.3500    10.7790    40.9630 C.3          1 SAH300   0.0000
    13 O3'         21.0080    10.6200    42.2900 O.3          1 SAH300   0.0000
    14 C2'         20.4390    11.7600    40.2460 C.3          1 SAH300   0.0000
    15 O2'         20.2120    12.9250    41.0000 O.3          1 SAH300   0.0000
    16 C1'         21.4170    12.2190    39.1480 C.3          1 SAH300   0.0000
    17 N9          21.3410    11.5610    37.8410 N.pl3        1 SAH300   0.0000
    18 C8          22.3700    10.8590    37.2380 C.2          1 SAH300   0.0000
    19 N7          21.9360    10.4910    36.0390 N.2          1 SAH300   0.0000
    20 C5          20.6530    10.9370    35.8810 C.ar         1 SAH300   0.0000
    21 C6          19.6870    10.8320    34.8960 C.ar         1 SAH300   0.0000
    22 N6          19.8880    10.2350    33.7230 N.pl3        1 SAH300   0.0000
    23 N1          18.4370    11.4370    35.1050 N.ar         1 SAH300   0.0000
    24 C2          18.1000    12.1110    36.2470 C.ar         1 SAH300   0.0000
    25 N3          19.0170    12.1480    37.2350 N.ar         1 SAH300   0.0000
    26 C4          20.2800    11.6210    37.0260 C.ar         1 SAH300   0.0000
    27 H1          28.2790    10.5732    37.6596 H            1 SAH300   0.0000
    28 H2          28.6282    11.9312    36.8227 H            1 SAH300   0.0000
    29 HA          26.2261    11.0871    36.9710 H            1 SAH300   0.0000
    30 HB1         25.1820    12.2933    38.8256 H            1 SAH300   0.0000
    31 HB2         26.6809    12.6459    39.3696 H            1 SAH300   0.0000
    32 HG1         27.0753    10.3190    39.6907 H            1 SAH300   0.0000
    33 HG2         25.5369    10.0188    39.2326 H            1 SAH300   0.0000
    34 H5'1        23.5958     9.8072    41.8411 H            1 SAH300   0.0000
    35 H5'2        23.8948     9.8523    40.2363 H            1 SAH300   0.0000
    36 H4'         22.8244    12.1509    41.5636 H            1 SAH300   0.0000
    37 H3'         21.3466     9.8954    40.4948 H            1 SAH300   0.0000
    38 H12         20.0994    10.2071    42.3529 H            1 SAH300   0.0000
    39 H2'         19.6026    11.3436    39.8896 H            1 SAH300   0.0000
    40 H14         21.0833    13.3830    41.1762 H            1 SAH300   0.0000
    41 H1'         21.3316    13.2076    39.0239 H            1 SAH300   0.0000
    42 H16         23.2691    10.6659    37.6308 H            1 SAH300   0.0000
    43 H17         19.1487    10.1914    33.0510 H            1 SAH300   0.0000
    44 H18         20.7782     9.8302    33.5140 H            1 SAH300   0.0000
    45 H19         17.2106    12.5576    36.3449 H            1 SAH300   0.0000
    46 H20         28.4657    11.9919    38.4464 H            1 SAH300   0.0000
@<TRIPOS>BOND
     1    1    2       1
     2    2    3       1
     3    2    6       1
     4    3    4       1
     5    4    5       1
     6    5    9       1
     7    6    7      ar
     8    6    8      ar
     9    9   10       1
    10   10   11       1
    11   10   12       1
    12   11   16       1
    13   12   13       1
    14   12   14       1
    15   14   15       1
    16   14   16       1
    17   16   17       1
    18   17   18       1
    19   17   26       1
    20   18   19       2
    21   19   20       1
    22   20   21      ar
    23   20   26      ar
    24   21   22       1
    25   21   23      ar
    26   23   24      ar
    27   24   25      ar
    28   25   26      ar
    29    1   27       1
    30    1   28       1
    31    2   29       1
    32    3   30       1
    33    3   31       1
    34    4   32       1
    35    4   33       1
    36    1   46       1
    37    9   34       1
    38    9   35       1
    39   10   36       1
    40   12   37       1
    41   13   38       1
    42   14   39       1
    43   15   40       1
    44   16   41       1
    45   18   42       1
    46   22   43       1
    47   22   44       1
    48   24   45       1
@<TRIPOS>SUBSTRUCTURE
     1 SAH300      1 GROUP             4 A     SAH     0 **** SAH A 300
