@<TRIPOS>MOLECULE
4ft4_SAH_3_ligand
   47    49     1     0     0
SMALL
NO_CHARGES


@<TRIPOS>ATOM
     1 N            3.7100   -12.0360   -19.3640 N.4          1 SAH1000   1.0000
     2 CA           4.4880   -11.7120   -20.5440 C.3          1 SAH1000   0.0000
     3 CB           4.1880   -10.2800   -20.9730 C.3          1 SAH1000   0.0000
     4 CG           2.7900   -10.1710   -21.5690 C.3          1 SAH1000   0.0000
     5 SD           2.3020    -8.4780   -21.6180 S.3          1 SAH1000   0.0000
     6 C            5.9490   -11.8440   -20.2310 C.2          1 SAH1000   0.0000
     7 O            6.7310   -12.1590   -21.1550 O.3          1 SAH1000   0.0000
     8 OXT          6.3300   -11.6350   -19.0590 O.2          1 SAH1000   0.0000
     9 C5'          0.8160    -8.6130   -22.5540 C.3          1 SAH1000   0.0000
    10 C4'          1.0460    -9.5350   -23.7450 C.3          1 SAH1000   0.0000
    11 O4'         -0.1580   -10.2450   -24.0470 O.3          1 SAH1000   0.0000
    12 C3'          1.4450    -8.7480   -24.9830 C.3          1 SAH1000   0.0000
    13 O3'          2.7350    -9.1670   -25.4360 O.3          1 SAH1000   0.0000
    14 C2'          0.4000    -9.0530   -26.0360 C.3          1 SAH1000   0.0000
    15 O2'          1.0130    -9.6700   -27.1710 O.3          1 SAH1000   0.0000
    16 C1'         -0.5870   -10.0130   -25.3910 C.3          1 SAH1000   0.0000
    17 N9          -1.9430    -9.4100   -25.3880 N.pl3        1 SAH1000   0.0000
    18 C8          -2.2200    -8.0960   -25.2900 C.2          1 SAH1000   0.0000
    19 N7          -3.5590    -7.8730   -25.3180 N.2          1 SAH1000   0.0000
    20 C5          -4.1640    -9.0690   -25.4360 C.ar         1 SAH1000   0.0000
    21 C6          -5.5620    -9.5540   -25.5240 C.ar         1 SAH1000   0.0000
    22 N6          -6.6070    -8.6920   -25.4890 N.pl3        1 SAH1000   0.0000
    23 N1          -5.7590   -10.8860   -25.6400 N.ar         1 SAH1000   0.0000
    24 C2          -4.7300   -11.7530   -25.6760 C.ar         1 SAH1000   0.0000
    25 N3          -3.4390   -11.3830   -25.6010 N.ar         1 SAH1000   0.0000
    26 C4          -3.0960   -10.0780   -25.4820 C.ar         1 SAH1000   0.0000
    27 H1           3.9067   -12.9752   -19.0826 H            1 SAH1000   0.0000
    28 H2           3.9508   -11.4087   -18.6234 H            1 SAH1000   0.0000
    29 HA           4.2476   -12.3394   -21.2847 H            1 SAH1000   0.0000
    30 HB1          4.8588    -9.9964   -21.6583 H            1 SAH1000   0.0000
    31 HB2          4.2515    -9.6795   -20.1759 H            1 SAH1000   0.0000
    32 HG1          2.1459   -10.6873   -21.0046 H            1 SAH1000   0.0000
    33 HG2          2.7933   -10.5439   -22.4969 H            1 SAH1000   0.0000
    34 H5'1         0.5450    -7.7077   -22.8811 H            1 SAH1000   0.0000
    35 H5'2         0.0916    -8.9894   -21.9764 H            1 SAH1000   0.0000
    36 H4'          1.7686   -10.1893   -23.5220 H            1 SAH1000   0.0000
    37 H3'          1.4531    -7.7688   -24.7801 H            1 SAH1000   0.0000
    38 H12          2.6622    -9.5207   -26.3685 H            1 SAH1000   0.0000
    39 H2'         -0.0669    -8.2126   -26.3113 H            1 SAH1000   0.0000
    40 H14          1.0152   -10.6627   -27.0501 H            1 SAH1000   0.0000
    41 H1'         -0.6006   -10.8758   -25.8964 H            1 SAH1000   0.0000
    42 H16         -1.5292    -7.3777   -25.2073 H            1 SAH1000   0.0000
    43 H17         -7.5431    -9.0384   -25.5497 H            1 SAH1000   0.0000
    44 H18         -6.4420    -7.7095   -25.4025 H            1 SAH1000   0.0000
    45 H19         -4.9371   -12.7274   -25.7635 H            1 SAH1000   0.0000
    46 H20          2.7359   -11.9475   -19.5723 H            1 SAH1000   0.0000
    47 H21          6.3777   -12.3166   -22.0771 H            1 SAH1000   0.0000
@<TRIPOS>BOND
     1    1    2       1
     2    2    3       1
     3    2    6       1
     4    3    4       1
     5    4    5       1
     6    5    9       1
     7    6    7       1
     8    6    8       2
     9    9   10       1
    10   10   11       1
    11   10   12       1
    12   11   16       1
    13   12   13       1
    14   12   14       1
    15   14   15       1
    16   14   16       1
    17   16   17       1
    18   17   18       1
    19   17   26       1
    20   18   19       2
    21   19   20       1
    22   20   21      ar
    23   20   26      ar
    24   21   22       1
    25   21   23      ar
    26   23   24      ar
    27   24   25      ar
    28   25   26      ar
    29    1   27       1
    30    1   28       1
    31    2   29       1
    32    3   30       1
    33    3   31       1
    34    4   32       1
    35    4   33       1
    36    1   46       1
    37    9   34       1
    38    9   35       1
    39   10   36       1
    40   12   37       1
    41   13   38       1
    42   14   39       1
    43   15   40       1
    44   16   41       1
    45   18   42       1
    46   22   43       1
    47   22   44       1
    48   24   45       1
    49    7   47       1
@<TRIPOS>SUBSTRUCTURE
     1 SAH1000     1 GROUP             4 A     SAH     0 **** SAH A1000
