@<TRIPOS>MOLECULE
2rc6_NAP_2_ligand
   77    81     1     0     0
SMALL
NO_CHARGES


@<TRIPOS>ATOM
     1 PA           7.5660     7.3540     3.8990 P.3          1 NAP416   0.0000
     2 O1A          8.4900     6.2850     4.7670 O.co2        1 NAP416   0.0000
     3 O2A          7.9880     8.7210     4.1660 O.co2        1 NAP416  -1.0000
     4 O5B          7.7380     7.0560     2.2760 O.3          1 NAP416   0.0000
     5 C5B          7.9630     8.1250     1.3840 C.3          1 NAP416   0.0000
     6 C4B          8.7670     7.5120     0.2030 C.3          1 NAP416   0.0000
     7 O4B          9.9830     8.3310    -0.0640 O.3          1 NAP416   0.0000
     8 C3B          9.2610     6.1110     0.6560 C.3          1 NAP416   0.0000
     9 O3B          8.7840     5.1270    -0.2190 O.3          1 NAP416   0.0000
    10 C2B         10.7510     6.1780     0.6500 C.3          1 NAP416   0.0000
    11 O2B         11.3300     4.9640     0.1600 O.3          1 NAP416   0.0000
    12 C1B         11.0310     7.3290    -0.3300 C.3          1 NAP416   0.0000
    13 N9A         12.3700     7.9380    -0.1700 N.pl3        1 NAP416   0.0000
    14 C8A         13.3750     7.7340     0.9770 C.2          1 NAP416   0.0000
    15 N7A         14.5840     8.5890     0.6780 N.2          1 NAP416   0.0000
    16 C5A         14.3350     9.3210    -0.6410 C.ar         1 NAP416   0.0000
    17 C6A         15.1850    10.3300    -1.4570 C.ar         1 NAP416   0.0000
    18 N6A         16.5160    10.7310    -0.9810 N.pl3        1 NAP416   0.0000
    19 N1A         14.6610    10.8710    -2.7250 N.ar         1 NAP416   0.0000
    20 C2A         13.2850    10.4590    -3.2280 C.ar         1 NAP416   0.0000
    21 N3A         12.4310     9.4550    -2.4130 N.ar         1 NAP416   0.0000
    22 C4A         12.9550     8.9090    -1.1550 C.ar         1 NAP416   0.0000
    23 O3           5.9730     7.1680     4.3270 O.3          1 NAP416   0.0000
    24 PN           5.5760     7.5560     5.9010 P.3          1 NAP416   0.0000
    25 O1N          5.1020     6.1640     6.6340 O.co2        1 NAP416   0.0000
    26 O2N          4.3440     8.6680     5.9120 O.co2        1 NAP416  -1.0000
    27 O5D          6.9470     8.1860     6.6590 O.3          1 NAP416   0.0000
    28 C5D          7.1690     9.5940     6.6350 C.3          1 NAP416   0.0000
    29 C4D          8.6760     9.9460     6.8930 C.3          1 NAP416   0.0000
    30 O4D          9.5470     9.3300     5.8580 O.3          1 NAP416   0.0000
    31 C3D          9.1530     9.4490     8.2490 C.3          1 NAP416   0.0000
    32 O3D          8.0650     9.0700     9.0610 O.3          1 NAP416   0.0000
    33 C2D         10.0740     8.2690     7.9930 C.3          1 NAP416   0.0000
    34 O2D          9.5320     7.0780     8.5600 O.3          1 NAP416   0.0000
    35 C1D         10.1850     8.1310     6.4560 C.3          1 NAP416   0.0000
    36 N1N         11.5890     8.0310     6.0450 N.4          1 NAP416   1.0000
    37 C2N         12.5980     7.8670     7.1940 C.3          1 NAP416   0.0000
    38 C3N         12.8580     6.3450     7.6720 C.2          1 NAP416   0.0000
    39 C7N         13.3450     6.0370     9.1040 C.2          1 NAP416   0.0000
    40 O7N         14.4570     6.2900     9.4160 O.2          1 NAP416   0.0000
    41 N7N         12.4350     5.4370    10.0800 N.am         1 NAP416   0.0000
    42 C4N         12.7680     5.2370     6.6020 C.2          1 NAP416   0.0000
    43 C5N         12.2980     5.6350     5.1500 C.3          1 NAP416   0.0000
    44 C6N         11.8710     7.1320     4.8600 C.3          1 NAP416   0.0000
    45 P2B         11.8230     3.7580     1.2390 P.3          1 NAP416   0.0000
    46 O1X         13.4100     3.4180     0.9740 O.co2        1 NAP416   0.0000
    47 O2X         10.9350     2.3860     1.0140 O.co2        1 NAP416  -1.0000
    48 O3X         11.6320     4.2170     2.6150 O.co2        1 NAP416  -1.0000
    49 H5B1         8.4914     8.8477     1.8296 H            1 NAP416   0.0000
    50 H5B2         7.0942     8.4991     1.0594 H            1 NAP416   0.0000
    51 H4B          8.1982     7.4413    -0.6164 H            1 NAP416   0.0000
    52 H3B          8.9363     5.9231     1.5830 H            1 NAP416   0.0000
    53 H5           9.4343     4.3681    -0.2536 H            1 NAP416   0.0000
    54 H2B         11.1002     6.3951     1.5616 H            1 NAP416   0.0000
    55 H1B         10.9333     6.9931    -1.2668 H            1 NAP416   0.0000
    56 H8A         13.2507     7.1435     1.7744 H            1 NAP416   0.0000
    57 H6A1        17.0610    11.3817    -1.5097 H            1 NAP416   0.0000
    58 H6A2        16.8768    10.3532    -0.1283 H            1 NAP416   0.0000
    59 H2A         12.9320    10.8361    -4.0843 H            1 NAP416   0.0000
    60 H5D1         6.6096    10.0228     7.3444 H            1 NAP416   0.0000
    61 H5D2         6.9015     9.9494     5.7394 H            1 NAP416   0.0000
    62 H4D          8.7857    10.9393     6.8570 H            1 NAP416   0.0000
    63 H3D          9.6670    10.1758     8.7045 H            1 NAP416   0.0000
    64 H16          7.3166     8.7428     8.4841 H            1 NAP416   0.0000
    65 H2D         10.9763     8.4512     8.3838 H            1 NAP416   0.0000
    66 H18         10.1506     6.3127     8.3821 H            1 NAP416   0.0000
    67 H1D          9.6938     7.3117     6.1603 H            1 NAP416   0.0000
    68 H2N1        12.2583     8.3840     7.9797 H            1 NAP416   0.0000
    69 H2N2        13.4718     8.2506     6.8951 H            1 NAP416   0.0000
    70 H7N1        12.7551     5.2393    11.0065 H            1 NAP416   0.0000
    71 H7N2        11.4929     5.2246     9.8206 H            1 NAP416   0.0000
    72 H4N         13.0018     4.2903     6.8236 H            1 NAP416   0.0000
    73 H5N1        11.5112     5.0587     4.9293 H            1 NAP416   0.0000
    74 H5N2        13.0525     5.4209     4.5296 H            1 NAP416   0.0000
    75 H6N1        12.6086     7.5554     4.3340 H            1 NAP416   0.0000
    76 H6N2        11.0400     7.1023     4.3045 H            1 NAP416   0.0000
    77 H1N         11.7901     8.9449     5.6922 H            1 NAP416   0.0000
@<TRIPOS>BOND
     1    1    2      ar
     2    1    3      ar
     3    1    4       1
     4    1   23       1
     5    4    5       1
     6    5    6       1
     7    6    7       1
     8    6    8       1
     9    7   12       1
    10    8    9       1
    11    8   10       1
    12   10   11       1
    13   10   12       1
    14   11   45       1
    15   12   13       1
    16   13   14       1
    17   13   22       1
    18   14   15       2
    19   15   16       1
    20   16   17      ar
    21   16   22      ar
    22   17   18       1
    23   17   19      ar
    24   19   20      ar
    25   20   21      ar
    26   21   22      ar
    27   23   24       1
    28   24   25      ar
    29   24   26      ar
    30   24   27       1
    31   27   28       1
    32   28   29       1
    33   29   30       1
    34   29   31       1
    35   30   35       1
    36   31   32       1
    37   31   33       1
    38   33   34       1
    39   33   35       1
    40   35   36       1
    41   36   37       1
    42   36   44       1
    43   37   38       1
    44   38   39       1
    45   38   42       2
    46   39   40       2
    47   39   41      am
    48   42   43       1
    49   43   44       1
    50   45   46      ar
    51   45   47      ar
    52   45   48      ar
    53   44   76       1
    54    5   49       1
    55    5   50       1
    56    6   51       1
    57    8   52       1
    58    9   53       1
    59   10   54       1
    60   12   55       1
    61   14   56       1
    62   18   57       1
    63   18   58       1
    64   20   59       1
    65   36   77       1
    66   28   60       1
    67   28   61       1
    68   29   62       1
    69   31   63       1
    70   32   64       1
    71   33   65       1
    72   34   66       1
    73   35   67       1
    74   37   68       1
    75   37   69       1
    76   41   70       1
    77   41   71       1
    78   42   72       1
    79   43   73       1
    80   43   74       1
    81   44   75       1
@<TRIPOS>SUBSTRUCTURE
     1 NAP416      1 GROUP             4 A     NAP     0 **** NAP A 416
