@<TRIPOS>MOLECULE
4lsm_NAD_2_ligand
   70    74     1     0     0
SMALL
NO_CHARGES


@<TRIPOS>ATOM
     1 PA          44.8300    53.7690    42.8760 P.3          1 NAD401   0.0000
     2 O1A         46.1590    53.6090    43.5300 O.co2        1 NAD401   0.0000
     3 O2A         44.2870    55.1250    42.5300 O.co2        1 NAD401  -1.0000
     4 O5B         43.7300    53.1160    43.8450 O.3          1 NAD401   0.0000
     5 C5B         44.0310    51.9550    44.6370 C.3          1 NAD401   0.0000
     6 C4B         43.2580    52.1490    45.9250 C.3          1 NAD401   0.0000
     7 O4B         43.3110    50.9210    46.6770 O.3          1 NAD401   0.0000
     8 C3B         43.7950    53.2730    46.8220 C.3          1 NAD401   0.0000
     9 O3B         42.7390    54.2020    47.1750 O.3          1 NAD401   0.0000
    10 C2B         44.3320    52.5330    48.0460 C.3          1 NAD401   0.0000
    11 O2B         44.2330    53.2740    49.2770 O.3          1 NAD401   0.0000
    12 C1B         43.4880    51.2730    48.0530 C.3          1 NAD401   0.0000
    13 N9A         44.0640    50.1080    48.7470 N.pl3        1 NAD401   0.0000
    14 C8A         45.3530    49.7000    48.7740 C.2          1 NAD401   0.0000
    15 N7A         45.4590    48.5450    49.4920 N.2          1 NAD401   0.0000
    16 C5A         44.2230    48.1990    49.9100 C.ar         1 NAD401   0.0000
    17 C6A         43.6070    47.1100    50.6880 C.ar         1 NAD401   0.0000
    18 N6A         44.3920    46.1230    51.1820 N.pl3        1 NAD401   0.0000
    19 N1A         42.2550    47.1210    50.8930 N.ar         1 NAD401   0.0000
    20 C2A         41.4830    48.1020    50.4030 C.ar         1 NAD401   0.0000
    21 N3A         41.9980    49.1250    49.6820 N.ar         1 NAD401   0.0000
    22 C4A         43.3100    49.2180    49.4030 C.ar         1 NAD401   0.0000
    23 O3          44.8680    52.7760    41.5990 O.3          1 NAD401   0.0000
    24 PN          43.9650    52.8530    40.2860 P.3          1 NAD401   0.0000
    25 O1N         44.6390    53.6530    39.1740 O.co2        1 NAD401   0.0000
    26 O2N         42.5310    53.1220    40.7050 O.co2        1 NAD401  -1.0000
    27 O5D         44.0710    51.3560    39.7570 O.3          1 NAD401   0.0000
    28 C5D         43.4200    50.3180    40.4690 C.3          1 NAD401   0.0000
    29 C4D         43.4510    49.0880    39.5960 C.3          1 NAD401   0.0000
    30 O4D         42.7540    49.3310    38.3610 O.3          1 NAD401   0.0000
    31 C3D         44.8430    48.6460    39.1890 C.3          1 NAD401   0.0000
    32 O3D         44.7850    47.2200    38.9610 O.3          1 NAD401   0.0000
    33 C2D         45.0520    49.3390    37.8590 C.3          1 NAD401   0.0000
    34 O2D         46.0030    48.6790    37.0220 O.3          1 NAD401   0.0000
    35 C1D         43.6630    49.1940    37.2630 C.3          1 NAD401   0.0000
    36 N1N         43.3230    50.1630    36.2090 N.ar         1 NAD401   1.0000
    37 C2N         43.7030    51.4690    36.3000 C.ar         1 NAD401   0.0000
    38 C3N         43.3710    52.3650    35.2800 C.ar         1 NAD401   0.0000
    39 C7N         43.7680    53.8180    35.3380 C.2          1 NAD401   0.0000
    40 O7N         43.8700    54.4350    34.2910 O.2          1 NAD401   0.0000
    41 N7N         44.0010    54.4020    36.5120 N.am         1 NAD401   0.0000
    42 C4N         42.6120    51.9060    34.2090 C.ar         1 NAD401   0.0000
    43 C5N         42.2140    50.5620    34.1480 C.ar         1 NAD401   0.0000
    44 C6N         42.5830    49.7150    35.1700 C.ar         1 NAD401   0.0000
    45 H5B1        45.0124    51.8996    44.8209 H            1 NAD401   0.0000
    46 H5B2        43.7320    51.1232    44.1694 H            1 NAD401   0.0000
    47 H4B         42.3039    52.3464    45.6999 H            1 NAD401   0.0000
    48 H3B         44.5380    53.7567    46.3594 H            1 NAD401   0.0000
    49 H5          42.0173    53.7150    47.6670 H            1 NAD401   0.0000
    50 H2B         45.2881    52.2867    47.8872 H            1 NAD401   0.0000
    51 H7          43.3555    53.0778    49.7145 H            1 NAD401   0.0000
    52 H1B         42.5955    51.4814    48.4529 H            1 NAD401   0.0000
    53 H8A         46.1150    50.1744    48.3332 H            1 NAD401   0.0000
    54 H6A1        43.9854    45.3785    51.7116 H            1 NAD401   0.0000
    55 H6A2        45.3782    46.1387    51.0172 H            1 NAD401   0.0000
    56 H2A         40.4983    48.0769    50.5754 H            1 NAD401   0.0000
    57 H5D1        42.4736    50.5768    40.6623 H            1 NAD401   0.0000
    58 H5D2        43.8990    50.1398    41.3285 H            1 NAD401   0.0000
    59 H4D         43.0012    48.3368    40.0791 H            1 NAD401   0.0000
    60 H3D         45.5366    48.8973    39.8641 H            1 NAD401   0.0000
    61 H17         45.6737    46.8124    39.1711 H            1 NAD401   0.0000
    62 H2D         45.2909    50.3015    37.9873 H            1 NAD401   0.0000
    63 H19         46.0966    49.1820    36.1628 H            1 NAD401   0.0000
    64 H1D         43.5724    48.2713    36.8882 H            1 NAD401   0.0000
    65 H2N         44.2189    51.7857    37.0959 H            1 NAD401   0.0000
    66 H7N1        44.2642    55.3661    36.5474 H            1 NAD401   0.0000
    67 H7N2        43.9127    53.8764    37.3582 H            1 NAD401   0.0000
    68 H4N         42.3487    52.5367    33.4790 H            1 NAD401   0.0000
    69 H5N         41.6728    50.2253    33.3774 H            1 NAD401   0.0000
    70 H6N         42.2998    48.7563    35.1430 H            1 NAD401   0.0000
@<TRIPOS>BOND
     1    1    2      ar
     2    1    3      ar
     3    1    4       1
     4    1   23       1
     5    4    5       1
     6    5    6       1
     7    6    7       1
     8    6    8       1
     9    7   12       1
    10    8    9       1
    11    8   10       1
    12   10   11       1
    13   10   12       1
    14   12   13       1
    15   13   14       1
    16   13   22       1
    17   14   15       2
    18   15   16       1
    19   16   17      ar
    20   16   22      ar
    21   17   18       1
    22   17   19      ar
    23   19   20      ar
    24   20   21      ar
    25   21   22      ar
    26   23   24       1
    27   24   25      ar
    28   24   26      ar
    29   24   27       1
    30   27   28       1
    31   28   29       1
    32   29   30       1
    33   29   31       1
    34   30   35       1
    35   31   32       1
    36   31   33       1
    37   33   34       1
    38   33   35       1
    39   35   36       1
    40   36   37      ar
    41   36   44      ar
    42   37   38      ar
    43   38   39       1
    44   38   42      ar
    45   39   40       2
    46   39   41      am
    47   42   43      ar
    48   43   44      ar
    49   44   70       1
    50    5   45       1
    51    5   46       1
    52    6   47       1
    53    8   48       1
    54    9   49       1
    55   10   50       1
    56   11   51       1
    57   12   52       1
    58   14   53       1
    59   18   54       1
    60   18   55       1
    61   20   56       1
    62   43   69       1
    63   28   57       1
    64   28   58       1
    65   29   59       1
    66   31   60       1
    67   32   61       1
    68   33   62       1
    69   34   63       1
    70   35   64       1
    71   37   65       1
    72   41   66       1
    73   41   67       1
    74   42   68       1
@<TRIPOS>SUBSTRUCTURE
     1 NAD401      1 GROUP             4 B     NAD     0 **** NAD B 401
