@<TRIPOS>MOLECULE
1ffu_FAD_2_ligand
   84    89     1     0     0
SMALL
NO_CHARGES


@<TRIPOS>ATOM
     1 PA          13.0980    60.4200   114.6990 P.3          1 FAD1930   0.0000
     2 O1A         13.7350    59.1220   114.3800 O.co2        1 FAD1930   0.0000
     3 O2A         13.4520    61.5390   114.0190 O.co2        1 FAD1930  -1.0000
     4 O5B         13.4470    60.6040   116.1380 O.3          1 FAD1930   0.0000
     5 C5B         13.1460    59.6000   117.0940 C.3          1 FAD1930   0.0000
     6 C4B         13.8710    59.9740   118.3850 C.3          1 FAD1930   0.0000
     7 O4B         13.2030    59.1610   119.3950 O.3          1 FAD1930   0.0000
     8 C3B         15.2940    59.4930   118.5140 C.3          1 FAD1930   0.0000
     9 O3B         16.0050    59.9350   119.6220 O.3          1 FAD1930   0.0000
    10 C2B         15.0410    58.0080   118.4050 C.3          1 FAD1930   0.0000
    11 O2B         16.1730    57.2880   118.7580 O.3          1 FAD1930   0.0000
    12 C1B         13.8910    57.8340   119.3560 C.3          1 FAD1930   0.0000
    13 N9A         12.8310    56.9280   118.9330 N.pl3        1 FAD1930   0.0000
    14 C8A         12.0890    56.9920   117.7870 C.2          1 FAD1930   0.0000
    15 N7A         11.1970    56.0150   117.6950 N.2          1 FAD1930   0.0000
    16 C5A         11.3660    55.2820   118.8360 C.ar         1 FAD1930   0.0000
    17 C6A         10.6930    54.0880   119.3220 C.ar         1 FAD1930   0.0000
    18 N6A          9.7320    53.4740   118.6910 N.pl3        1 FAD1930   0.0000
    19 N1A         11.1450    53.6390   120.5270 N.ar         1 FAD1930   0.0000
    20 C2A         12.1400    54.2490   121.2140 C.ar         1 FAD1930   0.0000
    21 N3A         12.8090    55.3400   120.8420 N.ar         1 FAD1930   0.0000
    22 C4A         12.3860    55.8230   119.6410 C.ar         1 FAD1930   0.0000
    23 N1           6.6950    68.0200   115.9480 N.2          1 FAD1930   0.0000
    24 C2           5.7040    68.5220   116.6740 C.2          1 FAD1930   0.0000
    25 O2           5.2650    67.9510   117.6120 O.2          1 FAD1930   0.0000
    26 N3           5.1000    69.7620   116.3850 N.pl3        1 FAD1930   0.0000
    27 C4           5.5110    70.5210   115.3330 C.2          1 FAD1930   0.0000
    28 O4           4.9630    71.5810   115.1200 O.2          1 FAD1930   0.0000
    29 C4X          6.6010    69.9900   114.5250 C.2          1 FAD1930   0.0000
    30 N5           7.0470    70.6980   113.4750 N.2          1 FAD1930   0.0000
    31 C5X          8.0670    70.1600   112.7450 C.ar         1 FAD1930   0.0000
    32 C6           8.5230    70.9100   111.6530 C.ar         1 FAD1930   0.0000
    33 C7           9.5310    70.4710   110.8590 C.ar         1 FAD1930   0.0000
    34 C7M          9.9980    71.3100   109.6930 C.3          1 FAD1930   0.0000
    35 C8          10.1600    69.2030   111.1270 C.ar         1 FAD1930   0.0000
    36 C8M         11.2880    68.6890   110.2560 C.3          1 FAD1930   0.0000
    37 C9           9.7170    68.4330   112.2170 C.ar         1 FAD1930   0.0000
    38 C9A          8.6800    68.9060   113.0210 C.ar         1 FAD1930   0.0000
    39 N10          8.1740    68.1800   114.1500 N.pl3        1 FAD1930   0.0000
    40 C10          7.1710    68.6970   114.8850 C.2          1 FAD1930   0.0000
    41 C1'          8.7640    66.8480   114.4790 C.3          1 FAD1930   0.0000
    42 C2'          8.1330    65.4360   114.0980 C.3          1 FAD1930   0.0000
    43 O2'          6.9180    65.9210   114.6070 O.3          1 FAD1930   0.0000
    44 C3'          9.3460    64.9370   114.8470 C.3          1 FAD1930   0.0000
    45 O3'          9.3210    64.4670   113.4790 O.3          1 FAD1930   0.0000
    46 C4'          9.5120    63.4810   115.2020 C.3          1 FAD1930   0.0000
    47 O4'          9.5560    64.3810   116.3610 O.3          1 FAD1930   0.0000
    48 C5'         10.7390    62.8270   115.8490 C.3          1 FAD1930   0.0000
    49 O5'          9.7390    61.6430   115.4130 O.3          1 FAD1930   0.0000
    50 P           10.2740    60.7540   114.2860 P.3          1 FAD1930   0.0000
    51 O1P          9.1530    59.6970   114.0720 O.co2        1 FAD1930   0.0000
    52 O2P         10.6130    61.4560   113.1270 O.co2        1 FAD1930  -1.0000
    53 O3P         11.5300    60.1570   114.7510 O.3          1 FAD1930   0.0000
    54 H5B1        13.4643    58.7099   116.7678 H            1 FAD1930   0.0000
    55 H5B2        12.1595    59.5634   117.2533 H            1 FAD1930   0.0000
    56 H4B         13.7912    60.9507   118.5843 H            1 FAD1930   0.0000
    57 H3B         15.7909    59.7808   117.6953 H            1 FAD1930   0.0000
    58 H5          15.5414    59.6366   120.4563 H            1 FAD1930   0.0000
    59 H2B         14.7585    57.7732   117.4749 H            1 FAD1930   0.0000
    60 H7          16.4656    56.7263   117.9841 H            1 FAD1930   0.0000
    61 H1B         14.2231    57.5845   120.2657 H            1 FAD1930   0.0000
    62 H8A         12.2063    57.7007   117.0913 H            1 FAD1930   0.0000
    63 H6A1         9.3158    52.6560   119.0881 H            1 FAD1930   0.0000
    64 H6A2         9.4109    53.8209   117.8098 H            1 FAD1930   0.0000
    65 H2A         12.3989    53.8394   122.0888 H            1 FAD1930   0.0000
    66 H13          4.3544    70.0907   116.9647 H            1 FAD1930   0.0000
    67 H14          8.0944    71.7913   111.4540 H            1 FAD1930   0.0000
    68 H7M1        10.7421    70.8384   109.2199 H            1 FAD1930   0.0000
    69 H7M2         9.2376    71.4528   109.0594 H            1 FAD1930   0.0000
    70 H7M3        10.3234    72.1943   110.0278 H            1 FAD1930   0.0000
    71 H8M1        11.5933    67.7997   110.5964 H            1 FAD1930   0.0000
    72 H8M2        10.9648    68.5925   109.3146 H            1 FAD1930   0.0000
    73 H8M3        12.0504    69.3355   110.2821 H            1 FAD1930   0.0000
    74 H21         10.1434    67.5504   112.4148 H            1 FAD1930   0.0000
    75 H1'1         8.8532    66.8374   115.4750 H            1 FAD1930   0.0000
    76 H1'2         9.6733    66.8519   114.0629 H            1 FAD1930   0.0000
    77 H2'          8.1267    65.2276   113.1200 H            1 FAD1930   0.0000
    78 H25          6.8549    65.7051   115.5814 H            1 FAD1930   0.0000
    79 H3'         10.0501    65.5902   115.1255 H            1 FAD1930   0.0000
    80 H27          9.7762    63.5783   113.4235 H            1 FAD1930   0.0000
    81 H4'          8.6972    62.9077   115.1161 H            1 FAD1930   0.0000
    82 H29          8.6942    64.8843   116.4251 H            1 FAD1930   0.0000
    83 H5'1        10.8842    62.9765   116.8270 H            1 FAD1930   0.0000
    84 H5'2        11.6125    62.8989   115.3675 H            1 FAD1930   0.0000
@<TRIPOS>BOND
     1    1    2      ar
     2    1    3      ar
     3    1    4       1
     4    1   53       1
     5    4    5       1
     6    5    6       1
     7    6    7       1
     8    6    8       1
     9    7   12       1
    10    8    9       1
    11    8   10       1
    12   10   11       1
    13   10   12       1
    14   12   13       1
    15   13   14       1
    16   13   22       1
    17   14   15       2
    18   15   16       1
    19   16   17      ar
    20   16   22      ar
    21   17   18       1
    22   17   19      ar
    23   19   20      ar
    24   20   21      ar
    25   21   22      ar
    26   23   24       1
    27   23   40       2
    28   24   25       2
    29   24   26       1
    30   26   27       1
    31   27   28       2
    32   27   29       1
    33   29   30       2
    34   29   40       1
    35   30   31       1
    36   31   32      ar
    37   31   38      ar
    38   32   33      ar
    39   33   34       1
    40   33   35      ar
    41   35   36       1
    42   35   37      ar
    43   37   38      ar
    44   38   39       1
    45   39   40       1
    46   39   41       1
    47   41   42       1
    48   42   43       1
    49   42   44       1
    50   50   53       1
    51   44   45       1
    52   44   46       1
    53   50   52      ar
    54   46   47       1
    55   46   48       1
    56   48   49       1
    57   49   50       1
    58   50   51      ar
    59   48   84       1
    60    5   54       1
    61    5   55       1
    62    6   56       1
    63    8   57       1
    64    9   58       1
    65   10   59       1
    66   11   60       1
    67   12   61       1
    68   14   62       1
    69   18   63       1
    70   18   64       1
    71   20   65       1
    72   26   66       1
    73   32   67       1
    74   34   68       1
    75   34   69       1
    76   34   70       1
    77   36   71       1
    78   36   72       1
    79   36   73       1
    80   37   74       1
    81   41   75       1
    82   41   76       1
    83   42   77       1
    84   43   78       1
    85   44   79       1
    86   45   80       1
    87   46   81       1
    88   47   82       1
    89   48   83       1
@<TRIPOS>SUBSTRUCTURE
     1 FAD1930     1 GROUP             4 C     FAD     0 **** FAD C1930
