@<TRIPOS>MOLECULE
3uf7_ASP_ILE_PRO_PHE_1_ligand
   68    69     4     0     0
SMALL
NO_CHARGES


@<TRIPOS>ATOM
     1 N            0.8440   -26.4630    12.4860 N.4          1 ASP175   1.0000
     2 CA          -0.6360   -26.6720    12.4090 C.3          1 ASP175   0.0000
     3 C           -1.0570   -28.1350    12.6000 C.2          1 ASP175   0.0000
     4 O           -2.2130   -28.4850    12.3640 O.2          1 ASP175   0.0000
     5 CB          -1.1730   -26.1320    11.0710 C.3          1 ASP175   0.0000
     6 CG          -1.0930   -24.6020    10.9650 C.2          1 ASP175   0.0000
     7 OD1         -1.3090   -23.9060    11.9900 O.co2        1 ASP175   0.0000
     8 OD2         -0.8370   -24.0930     9.8400 O.co2        1 ASP175  -1.0000
     9 H1           1.1856   -26.8159    13.3571 H            1 ASP175   0.0000
    10 H2           1.2887   -26.9475    11.7327 H            1 ASP175   0.0000
    11 HA          -1.0562   -26.1374    13.1422 H            1 ASP175   0.0000
    12 HB1         -2.1295   -26.4082    10.9769 H            1 ASP175   0.0000
    13 HB2         -0.6361   -26.5313    10.3279 H            1 ASP175   0.0000
    14 N           -0.1220   -28.9880    13.0140 N.am         2 ILE176   0.0000
    15 CA          -0.4220   -30.4010    13.1980 C.3          2 ILE176   0.0000
    16 C           -0.3260   -30.6980    14.6930 C.2          2 ILE176   0.0000
    17 O            0.7660   -30.5770    15.2770 O.2          2 ILE176   0.0000
    18 CB           0.5140   -31.3140    12.3910 C.3          2 ILE176   0.0000
    19 CG1          0.4840   -30.9050    10.9090 C.3          2 ILE176   0.0000
    20 CG2          0.0960   -32.7570    12.5660 C.3          2 ILE176   0.0000
    21 CD1          1.3170   -31.7850    10.0110 C.3          2 ILE176   0.0000
    22 H6           0.8013   -28.6527    13.2016 H            2 ILE176   0.0000
    23 H7          -1.3622   -30.5675    12.9008 H            2 ILE176   0.0000
    24 HB           1.4462   -31.2049    12.7361 H            2 ILE176   0.0000
    25 HG11         0.8251   -29.9679    10.8348 H            2 ILE176   0.0000
    26 HG12        -0.4639   -30.9407    10.5924 H            2 ILE176   0.0000
    27 HG21         0.7076   -33.3474    12.0393 H            2 ILE176   0.0000
    28 HG22         0.1463   -33.0036    13.5338 H            2 ILE176   0.0000
    29 HG23        -0.8423   -32.8741    12.2406 H            2 ILE176   0.0000
    30 HD11         1.2483   -31.4591     9.0681 H            2 ILE176   0.0000
    31 HD12         2.2720   -31.7533    10.3059 H            2 ILE176   0.0000
    32 HD13         0.9830   -32.7261    10.0636 H            2 ILE176   0.0000
    33 N           -1.4390   -31.0830    15.3380 N.am         3 PRO177   0.0000
    34 CA          -1.4790   -31.2730    16.7990 C.3          3 PRO177   0.0000
    35 C           -0.9970   -32.6520    17.2560 C.2          3 PRO177   0.0000
    36 O           -1.5130   -33.1880    18.2380 O.2          3 PRO177   0.0000
    37 CB          -2.9640   -31.0920    17.1280 C.3          3 PRO177   0.0000
    38 CG          -3.6360   -31.6600    15.9140 C.3          3 PRO177   0.0000
    39 CD          -2.7860   -31.2260    14.7410 C.3          3 PRO177   0.0000
    40 H17         -0.9421   -30.5594    17.2490 H            3 PRO177   0.0000
    41 H18         -3.2163   -31.5998    17.9517 H            3 PRO177   0.0000
    42 H19         -3.1924   -30.1260    17.2489 H            3 PRO177   0.0000
    43 HG1         -3.6720   -32.6578    15.9692 H            3 PRO177   0.0000
    44 HG2         -4.5638   -31.2973    15.8263 H            3 PRO177   0.0000
    45 HD1         -2.7876   -31.9193    14.0204 H            3 PRO177   0.0000
    46 HD2         -3.1073   -30.3559    14.3672 H            3 PRO177   0.0000
    47 N           -0.0070   -33.2060    16.5720 N.am         4 PHE178   0.0000
    48 CA           0.6070   -34.4750    16.9580 C.3          4 PHE178   0.0000
    49 C            1.9930   -34.5700    16.3430 C.2          4 PHE178   0.0000
    50 O            2.7560   -35.4960    16.6170 O.co2        4 PHE178   0.0000
    51 CB          -0.2840   -35.6890    16.6080 C.3          4 PHE178   0.0000
    52 CG          -0.8030   -35.6890    15.1800 C.ar         4 PHE178   0.0000
    53 CD1         -2.1020   -35.2590    14.9190 C.ar         4 PHE178   0.0000
    54 CD2         -0.0310   -36.1610    14.1020 C.ar         4 PHE178   0.0000
    55 CE1         -2.6000   -35.2440    13.6190 C.ar         4 PHE178   0.0000
    56 CE2         -0.5370   -36.1500    12.7880 C.ar         4 PHE178   0.0000
    57 CZ          -1.8100   -35.6920    12.5770 C.ar         4 PHE178   0.0000
    58 OXT          2.3370   -33.7120    15.5230 O.co2        4 PHE178  -1.0000
    59 H24          0.3344   -32.7365    15.7578 H            4 PHE178   0.0000
    60 H25          0.7203   -34.4630    17.9515 H            4 PHE178   0.0000
    61 H26         -1.0693   -35.6906    17.2272 H            4 PHE178   0.0000
    62 H27          0.2518   -36.5218    16.7470 H            4 PHE178   0.0000
    63 H28         -2.6838   -34.9575    15.6744 H            4 PHE178   0.0000
    64 H29          0.8908   -36.5094    14.2718 H            4 PHE178   0.0000
    65 HE1         -3.5255   -34.9104    13.4398 H            4 PHE178   0.0000
    66 HE2          0.0226   -36.4705    12.0237 H            4 PHE178   0.0000
    67 HZ          -2.1769   -35.6814    11.6468 H            4 PHE178   0.0000
    68 H33          1.0466   -25.4860    12.4197 H            4 PHE178   0.0000
@<TRIPOS>BOND
     1    1    2       1
     2    2    5       1
     3    2    3       1
     4    5    6       1
     5    6    7      ar
     6    6    8      ar
     7    3    4       2
     8    1    9       1
     9    1   10       1
    10    2   11       1
    11    3   14      am
    12    5   12       1
    13    5   13       1
    14   14   15       1
    15   15   18       1
    16   15   16       1
    17   18   20       1
    18   18   19       1
    19   19   21       1
    20   16   17       2
    21   21   32       1
    22   14   22       1
    23   15   23       1
    24   16   33      am
    25   18   24       1
    26   19   25       1
    27   19   26       1
    28   20   27       1
    29   20   28       1
    30   20   29       1
    31   21   30       1
    32   21   31       1
    33   33   39       1
    34   33   34       1
    35   39   38       1
    36   38   37       1
    37   37   34       1
    38   34   35       1
    39   35   36       2
    40   39   46       1
    41   34   40       1
    42   35   47      am
    43   37   41       1
    44   37   42       1
    45   38   43       1
    46   38   44       1
    47   39   45       1
    48   47   48       1
    49   48   51       1
    50   48   49       1
    51   51   52       1
    52   52   53      ar
    53   52   54      ar
    54   53   55      ar
    55   55   57      ar
    56   57   56      ar
    57   56   54      ar
    58   49   50      ar
    59   49   58      ar
    60   57   67       1
    61   47   59       1
    62   48   60       1
    63   51   61       1
    64   51   62       1
    65   53   63       1
    66   54   64       1
    67   55   65       1
    68   56   66       1
    69    1   68       1
@<TRIPOS>SUBSTRUCTURE
     1 ASP175      1 RESIDUE           4 B     ASP     0 **** ASP B 175
     2 ILE176     14 RESIDUE           4 B     ILE     0 **** ILE B 176
     3 PRO177     33 RESIDUE           4 B     PRO     0 **** PRO B 177
     4 PHE178     47 RESIDUE           4 B     PHE     0 **** PHE B 178
