@<TRIPOS>MOLECULE
3mcy_ZH1_3_ligand
   50    52     1     0     0
SMALL
NO_CHARGES


@<TRIPOS>ATOM
     1 C1         -53.2410    49.7820    13.4680 C.ar         1 ZH1182   0.0000
     2 C2         -52.9280    48.4420    13.2420 C.ar         1 ZH1182   0.0000
     3 C3         -53.0230    45.5420    12.7720 C.ar         1 ZH1182   0.0000
     4 C4         -52.2420    45.3410    15.0490 C.ar         1 ZH1182   0.0000
     5 C5         -53.7390    50.1830    14.7080 C.ar         1 ZH1182   0.0000
     6 C6         -52.7110    44.2020    12.5460 C.ar         1 ZH1182   0.0000
     7 C7         -51.9300    44.0000    14.8230 C.ar         1 ZH1182   0.0000
     8 C8         -53.6110    47.9030    15.4970 C.ar         1 ZH1182   0.0000
     9 C9         -52.7890    46.1120    14.0230 C.ar         1 ZH1182   0.0000
    10 C10        -53.1130    47.5020    14.2570 C.ar         1 ZH1182   0.0000
    11 C11        -53.9240    49.2440    15.7220 C.ar         1 ZH1182   0.0000
    12 C12        -52.1640    43.4310    13.5720 C.ar         1 ZH1182   0.0000
    13 C13        -54.4420    49.6630    17.0140 C.2          1 ZH1182   0.0000
    14 C14        -53.0570    39.3500    13.3280 C.3          1 ZH1182   0.0000
    15 C15        -54.2790    39.6430    14.2000 C.3          1 ZH1182   0.0000
    16 C16        -51.7720    39.7980    14.0250 C.3          1 ZH1182   0.0000
    17 C17        -54.2680    41.1110    14.6460 C.3          1 ZH1182   0.0000
    18 C18        -51.8760    41.2530    14.4820 C.3          1 ZH1182   0.0000
    19 C19        -55.2110    51.5420    18.2670 C.3          1 ZH1182   0.0000
    20 C20        -55.3950    41.4050    15.6290 C.3          1 ZH1182   0.0000
    21 O21        -54.6340    48.9010    17.9730 O.2          1 ZH1182   0.0000
    22 O22        -53.0390    41.4450    15.2960 O.3          1 ZH1182   0.0000
    23 O23        -52.9670    37.9540    13.0540 O.3          1 ZH1182   0.0000
    24 O24        -55.4680    39.3970    13.4540 O.3          1 ZH1182   0.0000
    25 O25        -51.5410    38.9960    15.1840 O.3          1 ZH1182   0.0000
    26 O26        -55.3800    40.4160    16.6430 O.3          1 ZH1182   0.0000
    27 O27        -51.8570    42.1140    13.3500 O.3          1 ZH1182   0.0000
    28 O28        -54.6950    51.0070    17.0440 O.3          1 ZH1182   0.0000
    29 H1         -53.1085    50.4557    12.7410 H            1 ZH1182   0.0000
    30 H2         -52.5712    48.1547    12.3531 H            1 ZH1182   0.0000
    31 H3         -53.4148    46.0947    12.0365 H            1 ZH1182   0.0000
    32 H4         -52.0736    45.7494    15.9461 H            1 ZH1182   0.0000
    33 H5         -53.9633    51.1440    14.8696 H            1 ZH1182   0.0000
    34 H6         -52.8793    43.7937    11.6488 H            1 ZH1182   0.0000
    35 H7         -51.5385    43.4470    15.5584 H            1 ZH1182   0.0000
    36 H8         -53.7436    47.2296    16.2243 H            1 ZH1182   0.0000
    37 H9         -53.1479    39.8455    12.4642 H            1 ZH1182   0.0000
    38 H10        -54.2629    39.0504    15.0054 H            1 ZH1182   0.0000
    39 H11        -51.0013    39.7017    13.3951 H            1 ZH1182   0.0000
    40 H12        -54.3786    41.6950    13.8418 H            1 ZH1182   0.0000
    41 H13        -51.0719    41.4592    15.0397 H            1 ZH1182   0.0000
    42 H14        -55.3542    52.5265    18.1660 H            1 ZH1182   0.0000
    43 H15        -56.0810    51.0992    18.4837 H            1 ZH1182   0.0000
    44 H16        -54.5584    51.3741    19.0059 H            1 ZH1182   0.0000
    45 H17        -56.2730    41.3840    15.1509 H            1 ZH1182   0.0000
    46 H18        -55.2592    42.3078    16.0370 H            1 ZH1182   0.0000
    47 H19        -52.5315    37.8163    12.1644 H            1 ZH1182   0.0000
    48 H20        -56.1971    39.1083    14.0745 H            1 ZH1182   0.0000
    49 H21        -51.0526    39.5349    15.8703 H            1 ZH1182   0.0000
    50 H22        -56.2529    39.9281    16.6457 H            1 ZH1182   0.0000
@<TRIPOS>BOND
     1    1    2      ar
     2    1    5      ar
     3    2   10      ar
     4    3    6      ar
     5    3    9      ar
     6    4    7      ar
     7    4    9      ar
     8    5   11      ar
     9    6   12      ar
    10    7   12      ar
    11    8   10      ar
    12    8   11      ar
    13    9   10       1
    14   11   13       1
    15   12   27       1
    16   13   21       2
    17   13   28       1
    18   14   15       1
    19   14   16       1
    20   14   23       1
    21   15   17       1
    22   15   24       1
    23   16   18       1
    24   16   25       1
    25   17   20       1
    26   17   22       1
    27   18   22       1
    28   18   27       1
    29   19   28       1
    30   20   26       1
    31    1   29       1
    32    2   30       1
    33    3   31       1
    34    4   32       1
    35    5   33       1
    36    6   34       1
    37    7   35       1
    38    8   36       1
    39   14   37       1
    40   15   38       1
    41   16   39       1
    42   17   40       1
    43   18   41       1
    44   19   42       1
    45   19   43       1
    46   19   44       1
    47   20   45       1
    48   20   46       1
    49   23   47       1
    50   24   48       1
    51   25   49       1
    52   26   50       1
@<TRIPOS>SUBSTRUCTURE
     1 ZH1182      1 GROUP             4 C     ZH1     0 **** ZH1 C 182
