@<TRIPOS>MOLECULE
3vhh_VHH_2_ligand
   36    37     1     0     0
SMALL
NO_CHARGES


@<TRIPOS>ATOM
     1 N1          16.9140     2.3340    28.2980 N.am         1 VHH1124   0.0000
     2 S1          18.9040     4.5160    27.0150 S.3          1 VHH1124   0.0000
     3 C2          20.0150     3.6050    28.0840 C.3          1 VHH1124   0.0000
     4 N2          18.4640     2.6100    29.7690 N.am         1 VHH1124   0.0000
     5 C3          17.2040     2.6600    29.5330 C.2          1 VHH1124   0.0000
     6 O3          16.3000     2.8790    30.4710 O.2          1 VHH1124   0.0000
     7 C4          19.2240     2.3620    28.5530 C.3          1 VHH1124   0.0000
     8 C5          18.1080     2.1140    27.5190 C.3          1 VHH1124   0.0000
     9 C6          18.0670     3.1580    26.3530 C.3          1 VHH1124   0.0000
    10 C7          20.6390     4.5310    29.1510 C.2          1 VHH1124   0.0000
    11 C8          21.5770     5.3880    28.6560 C.2          1 VHH1124   0.0000
    12 C9          22.2940     6.4340    29.5210 C.3          1 VHH1124   0.0000
    13 C10         23.2860     7.2200    28.7180 C.2          1 VHH1124   0.0000
    14 C11         24.5100     6.7650    28.3030 C.2          1 VHH1124   0.0000
    15 O11         24.9690     5.6250    28.5930 O.3          1 VHH1124   0.0000
    16 O12         25.2270     7.5500    27.6280 O.3          1 VHH1124   0.0000
    17 C17         19.0090     2.6760    31.1210 C.3          1 VHH1124   0.0000
    18 C18         15.5370     2.1170    27.7830 C.3          1 VHH1124   0.0000
    19 H1          20.7647     3.2741    27.5109 H            1 VHH1124   0.0000
    20 H2          19.8187     1.5638    28.6489 H            1 VHH1124   0.0000
    21 H3          18.1428     1.1789    27.1663 H            1 VHH1124   0.0000
    22 H4          18.5350     2.8085    25.5414 H            1 VHH1124   0.0000
    23 H5          17.1249     3.3967    26.1176 H            1 VHH1124   0.0000
    24 H6          20.3790     4.5045    30.1162 H            1 VHH1124   0.0000
    25 H7          21.8085     5.3325    27.6847 H            1 VHH1124   0.0000
    26 H8          22.7735     5.9680    30.2646 H            1 VHH1124   0.0000
    27 H9          21.6151     7.0608    29.9033 H            1 VHH1124   0.0000
    28 H10         23.0336     8.1537    28.4641 H            1 VHH1124   0.0000
    29 H11         25.8707     5.3495    28.2598 H            1 VHH1124   0.0000
    30 H12         26.1267     7.2543    27.3070 H            1 VHH1124   0.0000
    31 H13         20.0067     2.6205    31.0813 H            1 VHH1124   0.0000
    32 H14         18.7399     3.5397    31.5471 H            1 VHH1124   0.0000
    33 H15         18.6540     1.9130    31.6611 H            1 VHH1124   0.0000
    34 H16         15.5778     1.8782    26.8128 H            1 VHH1124   0.0000
    35 H17         15.1044     1.3726    28.2916 H            1 VHH1124   0.0000
    36 H18         15.0023     2.9542    27.8981 H            1 VHH1124   0.0000
@<TRIPOS>BOND
     1    1    5      am
     2    1    8       1
     3    1   18       1
     4    2    3       1
     5    2    9       1
     6    3    7       1
     7    3   10       1
     8    4    5      am
     9    4    7       1
    10    4   17       1
    11    5    6       2
    12    7    8       1
    13    8    9       1
    14   10   11       2
    15   11   12       1
    16   12   13       1
    17   13   14       2
    18   14   15       1
    19   14   16       1
    20    3   19       1
    21    7   20       1
    22    8   21       1
    23    9   22       1
    24    9   23       1
    25   10   24       1
    26   11   25       1
    27   12   26       1
    28   12   27       1
    29   13   28       1
    30   15   29       1
    31   16   30       1
    32   17   31       1
    33   17   32       1
    34   17   33       1
    35   18   34       1
    36   18   35       1
    37   18   36       1
@<TRIPOS>SUBSTRUCTURE
     1 VHH1124     1 GROUP             4 B     VHH     0 **** VHH B1124
