@<TRIPOS>MOLECULE
4xcx_SAH_1_ligand
   46    48     1     0     0
SMALL
NO_CHARGES


@<TRIPOS>ATOM
     1 N           33.1060   104.2240     9.9630 N.4          1 SAH400   1.0000
     2 CA          32.9990   105.6720    10.1310 C.3          1 SAH400   0.0000
     3 CB          34.2930   106.4060    10.5210 C.3          1 SAH400   0.0000
     4 CG          34.3120   106.7690    11.9970 C.3          1 SAH400   0.0000
     5 SD          35.6440   108.0020    12.1670 S.3          1 SAH400   0.0000
     6 C           32.4630   106.3880     8.8860 C.2          1 SAH400   0.0000
     7 O           32.8840   105.9810     7.7090 O.co2        1 SAH400   0.0000
     8 OXT         31.6650   107.3230     9.0600 O.co2        1 SAH400  -1.0000
     9 C5'         36.8790   107.1720    13.2020 C.3          1 SAH400   0.0000
    10 C4'         36.2040   106.4200    14.3310 C.3          1 SAH400   0.0000
    11 O4'         37.0810   105.4310    14.9110 O.3          1 SAH400   0.0000
    12 C3'         35.7110   107.2970    15.4840 C.3          1 SAH400   0.0000
    13 O3'         34.3710   106.9330    15.8010 O.3          1 SAH400   0.0000
    14 C2'         36.7120   106.9960    16.6020 C.3          1 SAH400   0.0000
    15 O2'         36.1720   107.0580    17.9140 O.3          1 SAH400   0.0000
    16 C1'         37.0240   105.5410    16.3170 C.3          1 SAH400   0.0000
    17 N9          38.2780   105.0540    16.8830 N.pl3        1 SAH400   0.0000
    18 C8          39.4860   105.6980    16.9470 C.2          1 SAH400   0.0000
    19 N7          40.4460   104.9810    17.4780 N.2          1 SAH400   0.0000
    20 C5          39.8250   103.7800    17.7920 C.ar         1 SAH400   0.0000
    21 C6          40.2930   102.5960    18.3970 C.ar         1 SAH400   0.0000
    22 N6          41.5370   102.4330    18.8550 N.pl3        1 SAH400   0.0000
    23 N1          39.4110   101.5820    18.5550 N.ar         1 SAH400   0.0000
    24 C2          38.1440   101.7560    18.1590 C.ar         1 SAH400   0.0000
    25 N3          37.5870   102.8300    17.5940 N.ar         1 SAH400   0.0000
    26 C4          38.4880   103.8120    17.4310 C.ar         1 SAH400   0.0000
    27 H1          32.9242   103.7727    10.8367 H            1 SAH400   0.0000
    28 H2          32.4390   103.9170     9.2841 H            1 SAH400   0.0000
    29 HA          32.3400   105.8323    10.8659 H            1 SAH400   0.0000
    30 HB1         34.3654   107.2442     9.9804 H            1 SAH400   0.0000
    31 HB2         35.0737   105.8133    10.3232 H            1 SAH400   0.0000
    32 HG1         34.5076   105.9621    12.5543 H            1 SAH400   0.0000
    33 HG2         33.4342   107.1603    12.2735 H            1 SAH400   0.0000
    34 H5'1        37.4996   107.8555    13.5863 H            1 SAH400   0.0000
    35 H5'2        37.3989   106.5274    12.6415 H            1 SAH400   0.0000
    36 H4'         35.4127   105.9417    13.9501 H            1 SAH400   0.0000
    37 H3'         35.7566   108.2628    15.2288 H            1 SAH400   0.0000
    38 H12         34.3765   106.2127    16.4947 H            1 SAH400   0.0000
    39 H2'         37.5300   107.5652    16.5193 H            1 SAH400   0.0000
    40 H14         35.4317   106.3915    18.0016 H            1 SAH400   0.0000
    41 H1'         36.2728   104.9751    16.6569 H            1 SAH400   0.0000
    42 H16         39.6229   106.6323    16.6177 H            1 SAH400   0.0000
    43 H17         41.8058   101.5660    19.2745 H            1 SAH400   0.0000
    44 H18         42.1997   103.1780    18.7784 H            1 SAH400   0.0000
    45 H19         37.5333   100.9779    18.3059 H            1 SAH400   0.0000
    46 H20         34.0280   103.9916     9.6533 H            1 SAH400   0.0000
@<TRIPOS>BOND
     1    1    2       1
     2    2    3       1
     3    2    6       1
     4    3    4       1
     5    4    5       1
     6    5    9       1
     7    6    7      ar
     8    6    8      ar
     9    9   10       1
    10   10   11       1
    11   10   12       1
    12   11   16       1
    13   12   13       1
    14   12   14       1
    15   14   15       1
    16   14   16       1
    17   16   17       1
    18   17   18       1
    19   17   26       1
    20   18   19       2
    21   19   20       1
    22   20   21      ar
    23   20   26      ar
    24   21   22       1
    25   21   23      ar
    26   23   24      ar
    27   24   25      ar
    28   25   26      ar
    29    1   27       1
    30    1   28       1
    31    2   29       1
    32    3   30       1
    33    3   31       1
    34    4   32       1
    35    4   33       1
    36    1   46       1
    37    9   34       1
    38    9   35       1
    39   10   36       1
    40   12   37       1
    41   13   38       1
    42   14   39       1
    43   15   40       1
    44   16   41       1
    45   18   42       1
    46   22   43       1
    47   22   44       1
    48   24   45       1
@<TRIPOS>SUBSTRUCTURE
     1 SAH400      1 GROUP             4 A     SAH     0 **** SAH A 400
