@<TRIPOS>MOLECULE
3bm4_ADV_1_ligand
   59    62     1     0     0
SMALL
NO_CHARGES


@<TRIPOS>ATOM
     1 PA           1.7150    16.2420    63.9080 P.3          1 ADV401   0.0000
     2 O5'          2.4770    16.0290    65.3100 O.3          1 ADV401   0.0000
     3 C5'          2.7130    17.1590    66.1550 C.3          1 ADV401   0.0000
     4 C4'          3.7030    16.8230    67.2720 C.3          1 ADV401   0.0000
     5 O4'          3.8110    17.8960    68.2260 O.3          1 ADV401   0.0000
     6 C3'          3.2600    15.6020    68.0780 C.3          1 ADV401   0.0000
     7 O3'          3.7170    14.4130    67.4290 O.3          1 ADV401   0.0000
     8 C2'          4.0960    15.8460    69.3310 C.3          1 ADV401   0.0000
     9 O2'          5.4840    15.7060    69.0180 O.3          1 ADV401   0.0000
    10 C1'          3.7590    17.3230    69.5460 C.3          1 ADV401   0.0000
    11 N9           2.3710    17.4290    70.0480 N.pl3        1 ADV401   0.0000
    12 C8           1.2970    17.7610    69.3350 C.2          1 ADV401   0.0000
    13 N7           0.2220    17.7560    70.1200 N.2          1 ADV401   0.0000
    14 C5           0.6120    17.4180    71.3450 C.ar         1 ADV401   0.0000
    15 C6          -0.0410    17.2560    72.5600 C.ar         1 ADV401   0.0000
    16 N6          -1.3530    17.4570    72.6540 N.pl3        1 ADV401   0.0000
    17 N1           0.6730    16.9050    73.6370 N.ar         1 ADV401   0.0000
    18 C2           1.9800    16.7110    73.5570 C.ar         1 ADV401   0.0000
    19 N3           2.6330    16.8570    72.4190 N.ar         1 ADV401   0.0000
    20 C4           1.9830    17.2080    71.3000 C.ar         1 ADV401   0.0000
    21 CX           0.0370    16.6660    64.4340 C.3          1 ADV401   0.0000
    22 PB          -0.9310    15.1710    64.7480 P.3          1 ADV401   0.0000
    23 O1B         -0.6780    14.7110    66.1320 O.co2        1 ADV401   0.0000
    24 OR5         -2.4370    15.7320    64.6780 O.3          1 ADV401   0.0000
    25 CR5         -2.9460    16.2280    63.4370 C.3          1 ADV401   0.0000
    26 CR4         -4.4090    16.6520    63.5780 C.3          1 ADV401   0.0000
    27 OR4         -5.1820    15.5530    64.0910 O.3          1 ADV401   0.0000
    28 CR3         -4.4990    17.7410    64.6510 C.3          1 ADV401   0.0000
    29 OR3         -5.0350    18.9590    64.1270 O.3          1 ADV401   0.0000
    30 CR2         -5.4230    17.1350    65.7070 C.3          1 ADV401   0.0000
    31 OR2         -6.7830    17.3510    65.3220 O.3          1 ADV401   0.0000
    32 CR1         -5.0600    15.6630    65.5170 C.3          1 ADV401   0.0000
    33 OR1         -6.0290    14.8220    66.1490 O.3          1 ADV401   0.0000
    34 O2A          2.2860    17.4190    63.2170 O.co2        1 ADV401   0.0000
    35 O2B         -0.7490    14.2060    63.6420 O.co2        1 ADV401  -1.0000
    36 O1A          1.6630    14.9570    63.1750 O.co2        1 ADV401  -1.0000
    37 H5'1         1.8467    17.4465    66.5635 H            1 ADV401   0.0000
    38 H5'2         3.0855    17.9055    65.6037 H            1 ADV401   0.0000
    39 H4'          4.6024    16.6455    66.8726 H            1 ADV401   0.0000
    40 H3'          2.2770    15.5922    68.2615 H            1 ADV401   0.0000
    41 H5           3.7660    14.5695    66.4425 H            1 ADV401   0.0000
    42 H2'          3.8148    15.2712    70.0994 H            1 ADV401   0.0000
    43 H7           5.5931    15.0471    68.2738 H            1 ADV401   0.0000
    44 H1'          4.4095    17.7633    70.1649 H            1 ADV401   0.0000
    45 H9           1.2977    17.9805    68.3594 H            1 ADV401   0.0000
    46 H10         -1.8154    17.3382    73.5327 H            1 ADV401   0.0000
    47 H11         -1.8766    17.7269    71.8459 H            1 ADV401   0.0000
    48 H12          2.4851    16.4474    74.3788 H            1 ADV401   0.0000
    49 HX1         -0.4075    17.1999    63.7147 H            1 ADV401   0.0000
    50 HX2          0.0831    17.2094    65.2722 H            1 ADV401   0.0000
    51 HR51        -2.8785    15.5095    62.7448 H            1 ADV401   0.0000
    52 HR52        -2.4023    17.0174    63.1521 H            1 ADV401   0.0000
    53 HR4         -4.7763    16.9746    62.7056 H            1 ADV401   0.0000
    54 HR3         -3.5948    17.9077    65.0443 H            1 ADV401   0.0000
    55 H19         -5.6656    18.7512    63.3792 H            1 ADV401   0.0000
    56 HR2         -5.2251    17.4660    66.6297 H            1 ADV401   0.0000
    57 H21         -7.3509    16.6062    65.6724 H            1 ADV401   0.0000
    58 HR1         -4.1312    15.4636    65.8294 H            1 ADV401   0.0000
    59 H23         -6.6340    15.3794    66.7175 H            1 ADV401   0.0000
@<TRIPOS>BOND
     1    1    2       1
     2    1   21       1
     3    1   34      ar
     4    1   36      ar
     5    2    3       1
     6    3    4       1
     7    4    5       1
     8    4    6       1
     9    5   10       1
    10    6    7       1
    11    6    8       1
    12    8    9       1
    13    8   10       1
    14   10   11       1
    15   11   12       1
    16   11   20       1
    17   12   13       2
    18   13   14       1
    19   14   15      ar
    20   14   20      ar
    21   15   16       1
    22   15   17      ar
    23   17   18      ar
    24   18   19      ar
    25   19   20      ar
    26   21   22       1
    27   22   23      ar
    28   22   24       1
    29   22   35      ar
    30   24   25       1
    31   25   26       1
    32   26   27       1
    33   26   28       1
    34   27   32       1
    35   28   29       1
    36   28   30       1
    37   30   31       1
    38   30   32       1
    39   32   33       1
    40    3   37       1
    41    3   38       1
    42    4   39       1
    43    6   40       1
    44    7   41       1
    45    8   42       1
    46    9   43       1
    47   10   44       1
    48   12   45       1
    49   16   46       1
    50   16   47       1
    51   18   48       1
    52   21   49       1
    53   21   50       1
    54   33   59       1
    55   25   51       1
    56   25   52       1
    57   26   53       1
    58   28   54       1
    59   29   55       1
    60   30   56       1
    61   31   57       1
    62   32   58       1
@<TRIPOS>SUBSTRUCTURE
     1 ADV401      1 GROUP             4 B     ADV     0 **** ADV B 401
