@<TRIPOS>MOLECULE
1ny2_ARG_PRO_PRO_GLY_1_ligand
   62    63     4     0     0
SMALL
NO_CHARGES


@<TRIPOS>ATOM
     1 N           36.1170    36.3640     4.8030 N.4          1 ARG380   1.0000
     2 CA          35.8490    37.7380     5.2290 C.3          1 ARG380   0.0000
     3 C           35.7220    38.7130     4.0620 C.2          1 ARG380   0.0000
     4 O           36.4200    39.8060     4.1540 O.2          1 ARG380   0.0000
     5 CB          36.9400    38.2470     6.2070 C.3          1 ARG380   0.0000
     6 CG          36.5200    38.5600     7.6140 C.3          1 ARG380   0.0000
     7 CD          35.3070    39.3540     7.8150 C.3          1 ARG380   0.0000
     8 NE          35.3310    40.7580     8.0730 N.pl3        1 ARG380   1.0000
     9 CZ          35.3360    41.6330     9.0630 C.cat        1 ARG380   0.0000
    10 NH1         35.3160    41.3610    10.3820 N.pl3        1 ARG380   0.0000
    11 NH2         35.3690    42.9590     8.7740 N.pl3        1 ARG380   0.0000
    12 H1          35.3535    35.7768     5.0718 H            1 ARG380   0.0000
    13 H2          36.2237    36.3380     3.8090 H            1 ARG380   0.0000
    14 HA          34.9779    37.7384     5.7202 H            1 ARG380   0.0000
    15 HB1         37.3253    39.0832     5.8167 H            1 ARG380   0.0000
    16 HB2         37.6496    37.5441     6.2558 H            1 ARG380   0.0000
    17 HG1         37.2737    39.0565     8.0446 H            1 ARG380   0.0000
    18 HG2         36.3841    37.6876     8.0836 H            1 ARG380   0.0000
    19 HD1         34.8316    38.9393     8.5909 H            1 ARG380   0.0000
    20 HD2         34.7596    39.2354     6.9866 H            1 ARG380   0.0000
    21 HE          35.3509    41.2497     7.2025 H            1 ARG380   0.0000
    22 HH11        35.3223    42.1081    11.0467 H            1 ARG380   0.0000
    23 HH12        35.2948    40.4120    10.6966 H            1 ARG380   0.0000
    24 HH21        35.3732    43.6320     9.5136 H            1 ARG380   0.0000
    25 HH22        35.3892    43.2628     7.8215 H            1 ARG380   0.0000
    26 N           34.7900    38.4870     3.1250 N.am         2 PRO381   0.0000
    27 CA          34.6230    39.3280     1.9390 C.3          2 PRO381   0.0000
    28 C           33.9030    40.6240     2.1560 C.2          2 PRO381   0.0000
    29 O           32.8600    40.6840     2.7630 O.2          2 PRO381   0.0000
    30 CB          33.9550    38.4520     0.8680 C.3          2 PRO381   0.0000
    31 CG          34.1710    37.0540     1.3990 C.3          2 PRO381   0.0000
    32 CD          34.0210    37.2510     2.9350 C.3          2 PRO381   0.0000
    33 H15         35.5389    39.5524     1.6062 H            2 PRO381   0.0000
    34 H16         32.9803    38.6607     0.7882 H            2 PRO381   0.0000
    35 H17         34.3955    38.5717    -0.0217 H            2 PRO381   0.0000
    36 H18         33.4803    36.4227     1.0464 H            2 PRO381   0.0000
    37 H19         35.0824    36.7154     1.1653 H            2 PRO381   0.0000
    38 H20         33.0639    37.3677     3.2001 H            2 PRO381   0.0000
    39 H21         34.4175    36.4878     3.4452 H            2 PRO381   0.0000
    40 N           34.5050    41.6800     1.6430 N.am         3 PRO382   0.0000
    41 CA          33.9040    43.0220     1.5980 C.3          3 PRO382   0.0000
    42 C           32.8600    43.0590     0.4340 C.2          3 PRO382   0.0000
    43 O           32.9680    42.4120    -0.6460 O.2          3 PRO382   0.0000
    44 CB          35.1210    43.9260     1.3020 C.3          3 PRO382   0.0000
    45 CG          35.8030    43.0820     0.2180 C.3          3 PRO382   0.0000
    46 CD          35.8080    41.6790     0.8970 C.3          3 PRO382   0.0000
    47 H22         33.4806    43.2590     2.4724 H            3 PRO382   0.0000
    48 H23         34.8446    44.8233     0.9577 H            3 PRO382   0.0000
    49 H24         35.7038    44.0426     2.1062 H            3 PRO382   0.0000
    50 H25         35.2749    43.0776    -0.6311 H            3 PRO382   0.0000
    51 H26         36.7314    43.4035     0.0315 H            3 PRO382   0.0000
    52 H27         35.8349    40.9472     0.2160 H            3 PRO382   0.0000
    53 H28         36.5828    41.5817     1.5216 H            3 PRO382   0.0000
    54 N           31.8680    43.9370     0.6770 N.am         4 GLY383   0.0000
    55 CA          30.7580    44.2180    -0.2360 C.3          4 GLY383   0.0000
    56 C           31.1530    45.4580    -1.0650 C.2          4 GLY383   0.0000
    57 O           32.1810    45.3900    -1.8350 O.2          4 GLY383   0.0000
    58 H29         31.8911    44.4335     1.5447 H            4 GLY383   0.0000
    59 HA1         29.9249    44.4049     0.2846 H            4 GLY383   0.0000
    60 HA2         30.6050    43.4362    -0.8404 H            4 GLY383   0.0000
    61 H32         30.6184    46.3009    -1.0046 H            4 GLY383   0.0000
    62 H33         36.9570    36.0383     5.2370 H            4 GLY383   0.0000
@<TRIPOS>BOND
     1    1    2       1
     2    2    5       1
     3    2    3       1
     4    5    6       1
     5    6    7       1
     6    7    8       1
     7    8    9      ar
     8    9   10      ar
     9    9   11      ar
    10    3    4       2
    11    1   12       1
    12    1   13       1
    13    2   14       1
    14    3   26      am
    15    5   15       1
    16    5   16       1
    17    6   17       1
    18    6   18       1
    19    7   19       1
    20    7   20       1
    21    8   21       1
    22   10   22       1
    23   10   23       1
    24   11   24       1
    25   11   25       1
    26   26   32       1
    27   26   27       1
    28   32   31       1
    29   31   30       1
    30   30   27       1
    31   27   28       1
    32   28   29       2
    33   32   39       1
    34   27   33       1
    35   28   40      am
    36   30   34       1
    37   30   35       1
    38   31   36       1
    39   31   37       1
    40   32   38       1
    41   40   46       1
    42   40   41       1
    43   46   45       1
    44   45   44       1
    45   44   41       1
    46   41   42       1
    47   42   43       2
    48   46   53       1
    49   41   47       1
    50   42   54      am
    51   44   48       1
    52   44   49       1
    53   45   50       1
    54   45   51       1
    55   46   52       1
    56   54   55       1
    57   55   56       1
    58   56   57       2
    59   56   61       1
    60   54   58       1
    61   55   59       1
    62   55   60       1
    63    1   62       1
@<TRIPOS>SUBSTRUCTURE
     1 ARG380      1 RESIDUE           4 4     ARG     0 **** ARG 4 380
     2 PRO381     26 RESIDUE           4 4     PRO     0 **** PRO 4 381
     3 PRO382     40 RESIDUE           4 4     PRO     0 **** PRO 4 382
     4 GLY383     54 RESIDUE           4 4     GLY     0 **** GLY 4 383
