@<TRIPOS>MOLECULE
3o7l_ANP_1_ligand
   41    43     1     0     0
SMALL
NO_CHARGES


@<TRIPOS>ATOM
     1 PB          -3.4370    23.8530     5.7590 P.3          1 ANP354   0.0000
     2 O1B         -4.8200    23.8320     6.6750 O.co2        1 ANP354   0.0000
     3 O2B         -3.1650    22.1920     5.4030 O.co2        1 ANP354  -1.0000
     4 N3B         -2.0530    24.8750     6.1280 N.3          1 ANP354   0.0000
     5 PA          -5.3050    25.2250     3.9480 P.3          1 ANP354   0.0000
     6 O1A         -6.6400    24.5900     3.5760 O.co2        1 ANP354   0.0000
     7 O2A         -5.0850    26.6170     5.2410 O.co2        1 ANP354  -1.0000
     8 O3A         -4.5220    23.8140     4.4310 O.3          1 ANP354   0.0000
     9 O5'         -4.2730    25.8460     3.0090 O.3          1 ANP354   0.0000
    10 C5'         -3.2570    25.1070     2.4390 C.3          1 ANP354   0.0000
    11 C4'         -2.8060    26.3920     1.6580 C.3          1 ANP354   0.0000
    12 O4'         -2.6910    26.3040     0.2450 O.3          1 ANP354   0.0000
    13 C3'         -3.5850    27.7540     1.8270 C.3          1 ANP354   0.0000
    14 O3'         -2.6230    28.4920     2.6860 O.3          1 ANP354   0.0000
    15 C2'         -3.7270    28.3950     0.4060 C.3          1 ANP354   0.0000
    16 O2'         -2.5560    28.9980    -0.1170 O.3          1 ANP354   0.0000
    17 C1'         -3.5360    27.2150    -0.4100 C.3          1 ANP354   0.0000
    18 N9          -4.9390    26.8890    -0.7500 N.pl3        1 ANP354   0.0000
    19 C8          -5.8790    26.1740    -0.1040 C.2          1 ANP354   0.0000
    20 N7          -7.1080    26.2190    -0.7310 N.2          1 ANP354   0.0000
    21 C5          -6.9300    26.9530    -1.8520 C.ar         1 ANP354   0.0000
    22 C6          -7.8270    27.3570    -3.0190 C.ar         1 ANP354   0.0000
    23 N6          -9.1940    26.9650    -3.0740 N.pl3        1 ANP354   0.0000
    24 N1          -7.2470    28.1040    -3.9950 N.ar         1 ANP354   0.0000
    25 C2          -5.9190    28.4890    -3.9090 C.ar         1 ANP354   0.0000
    26 N3          -5.0170    28.1280    -2.9810 N.ar         1 ANP354   0.0000
    27 C4          -5.4940    27.3380    -1.9050 C.ar         1 ANP354   0.0000
    28 H3B1        -1.7025    24.6463     7.0362 H            1 ANP354   0.0000
    29 H3B2        -1.3366    24.7248     5.4466 H            1 ANP354   0.0000
    30 H5'1        -3.5694    24.3577     1.8551 H            1 ANP354   0.0000
    31 H5'2        -2.5817    24.7622     3.0910 H            1 ANP354   0.0000
    32 H4'         -1.8792    26.5811     1.9826 H            1 ANP354   0.0000
    33 H3'         -4.4706    27.6288     2.2743 H            1 ANP354   0.0000
    34 H7          -2.9855    29.4022     2.8866 H            1 ANP354   0.0000
    35 H2'         -4.5771    28.8961     0.2440 H            1 ANP354   0.0000
    36 H9          -1.9961    29.3462     0.6348 H            1 ANP354   0.0000
    37 H1'         -3.0788    27.5002    -1.2524 H            1 ANP354   0.0000
    38 H11         -5.7057    25.6651     0.7392 H            1 ANP354   0.0000
    39 H12         -9.7627    27.2415    -3.8487 H            1 ANP354   0.0000
    40 H13         -9.5859    26.4130    -2.3379 H            1 ANP354   0.0000
    41 H14         -5.5930    29.1093    -4.6224 H            1 ANP354   0.0000
@<TRIPOS>BOND
     1    1    2      ar
     2    1    3      ar
     3    1    4       1
     4    1    8       1
     5    5    6      ar
     6    5    7      ar
     7    5    8       1
     8    5    9       1
     9    9   10       1
    10   10   11       1
    11   11   12       1
    12   11   13       1
    13   12   17       1
    14   13   14       1
    15   13   15       1
    16   15   16       1
    17   15   17       1
    18   17   18       1
    19   18   19       1
    20   18   27       1
    21   19   20       2
    22   20   21       1
    23   21   22      ar
    24   21   27      ar
    25   22   23       1
    26   22   24      ar
    27   24   25      ar
    28   25   26      ar
    29   26   27      ar
    30   25   41       1
    31    4   28       1
    32    4   29       1
    33   23   40       1
    34   10   30       1
    35   10   31       1
    36   11   32       1
    37   13   33       1
    38   14   34       1
    39   15   35       1
    40   16   36       1
    41   17   37       1
    42   19   38       1
    43   23   39       1
@<TRIPOS>SUBSTRUCTURE
     1 ANP354      1 GROUP             4 B     ANP     0 **** ANP B 354
