@<TRIPOS>MOLECULE
3r5w_F42_9_ligand
   85    87     1     0     0
SMALL
NO_CHARGES


@<TRIPOS>ATOM
     1 N1          -8.3670     6.0370   -31.8300 N.2          1 F42201   0.0000
     2 C2          -7.8790     5.8920   -33.0870 C.2          1 F42201   0.0000
     3 O2          -8.0420     6.8450   -33.8870 O.2          1 F42201   0.0000
     4 N3          -7.1910     4.7980   -33.4440 N.pl3        1 F42201   0.0000
     5 C4          -6.9770     3.7590   -32.5870 C.2          1 F42201   0.0000
     6 O4          -6.3460     2.7420   -32.8940 O.2          1 F42201   0.0000
     7 C4A         -7.5270     3.8300   -31.2250 C.2          1 F42201   0.0000
     8 C5          -7.3660     2.8050   -30.2930 C.2          1 F42201   0.0000
     9 C5A         -7.9000     3.0010   -29.0010 C.ar         1 F42201   0.0000
    10 C6          -7.7480     1.9930   -28.0360 C.ar         1 F42201   0.0000
    11 C7          -8.2700     2.1870   -26.7550 C.ar         1 F42201   0.0000
    12 C8          -8.9080     3.3770   -26.4410 C.ar         1 F42201   0.0000
    13 O8M         -9.3800     3.5600   -25.1760 O.3          1 F42201   0.0000
    14 C9          -9.0670     4.4050   -27.3880 C.ar         1 F42201   0.0000
    15 C9A         -8.5670     4.1920   -28.6880 C.ar         1 F42201   0.0000
    16 N10         -8.7380     5.2320   -29.6290 N.pl3        1 F42201   0.0000
    17 C10         -8.2240     5.0670   -30.8990 C.2          1 F42201   0.0000
    18 C1'         -9.4330     6.4950   -29.3430 C.3          1 F42201   0.0000
    19 C2'         -8.2980     7.5160   -29.2240 C.3          1 F42201   0.0000
    20 O2'         -7.5930     7.3320   -27.9670 O.3          1 F42201   0.0000
    21 C3'         -8.8290     8.9400   -29.2570 C.3          1 F42201   0.0000
    22 O3'         -9.7220     9.1550   -28.1500 O.3          1 F42201   0.0000
    23 C4'         -9.5810     9.2360   -30.5700 C.3          1 F42201   0.0000
    24 O4'         -8.7330     8.9020   -31.6560 O.3          1 F42201   0.0000
    25 C5'         -9.9750    10.7110   -30.6400 C.3          1 F42201   0.0000
    26 O5'         -8.8380    11.5230   -30.3890 O.3          1 F42201   0.0000
    27 P           -8.9480    13.0950   -30.2310 P.3          1 F42201   0.0000
    28 O1P         -7.5920    13.6790   -30.2700 O.co2        1 F42201   0.0000
    29 O2P         -9.9540    13.6620   -31.3370 O.co2        1 F42201  -1.0000
    30 O3P         -9.4880    13.0900   -28.7280 O.3          1 F42201   0.0000
    31 C1I        -10.6190    13.7760   -28.2200 C.3          1 F42201   0.0000
    32 C2I        -11.6010    12.7850   -27.5750 C.3          1 F42201   0.0000
    33 C3I         -9.9680    14.5970   -27.1530 C.2          1 F42201   0.0000
    34 O3I         -9.1820    14.0270   -26.4040 O.2          1 F42201   0.0000
    35 N1H        -10.2410    15.9090   -27.0970 N.am         1 F42201   0.0000
    36 C1H         -9.3520    16.8280   -26.3910 C.3          1 F42201   0.0000
    37 C2H        -10.0590    17.6440   -25.3320 C.2          1 F42201   0.0000
    38 O2U         -9.3680    18.1620   -24.3130 O.co2        1 F42201   0.0000
    39 O2T        -11.2680    17.8360   -25.3850 O.co2        1 F42201  -1.0000
    40 C3H         -8.5790    17.7170   -27.3690 C.3          1 F42201   0.0000
    41 C4H         -7.0810    17.6050   -27.0930 C.3          1 F42201   0.0000
    42 C5H         -6.2710    18.2670   -28.1910 C.2          1 F42201   0.0000
    43 O5H         -5.4130    17.6410   -28.8050 O.2          1 F42201   0.0000
    44 N1G         -6.5380    19.5500   -28.4500 N.am         1 F42201   0.0000
    45 C1G         -5.5180    20.4480   -28.9550 C.3          1 F42201   0.0000
    46 C2G         -5.0240    21.3100   -27.8300 C.2          1 F42201   0.0000
    47 O2V         -5.7100    21.3470   -26.6910 O.co2        1 F42201   0.0000
    48 O2W         -4.0090    21.9710   -27.9230 O.co2        1 F42201  -1.0000
    49 C3G         -6.1080    21.2660   -30.1010 C.3          1 F42201   0.0000
    50 C4G         -7.0200    20.3750   -30.9460 C.3          1 F42201   0.0000
    51 C5G         -7.2370    20.9250   -32.3430 C.2          1 F42201   0.0000
    52 O6G         -7.9690    22.0220   -32.5450 O.co2        1 F42201   0.0000
    53 O7G         -6.7490    20.3550   -33.3090 O.co2        1 F42201  -1.0000
    54 H1          -6.8217     4.7419   -34.3716 H            1 F42201   0.0000
    55 H2          -6.8883     1.9596   -30.5320 H            1 F42201   0.0000
    56 H3          -7.2706     1.1442   -28.2634 H            1 F42201   0.0000
    57 H4          -8.1836     1.4682   -26.0651 H            1 F42201   0.0000
    58 H8M         -9.8426     4.4127   -24.9334 H            1 F42201   0.0000
    59 H6          -9.5217     5.2620   -27.1456 H            1 F42201   0.0000
    60 H1'1        -9.9477     6.4329   -28.4879 H            1 F42201   0.0000
    61 H1'2       -10.0536     6.7372   -30.0888 H            1 F42201   0.0000
    62 H2'         -7.6584     7.3861   -29.9816 H            1 F42201   0.0000
    63 H10         -6.8425     6.6841   -28.0975 H            1 F42201   0.0000
    64 H3'         -8.0589     9.5729   -29.1772 H            1 F42201   0.0000
    65 H12         -9.2029     9.4879   -27.3628 H            1 F42201   0.0000
    66 H4'        -10.4061     8.6725   -30.6111 H            1 F42201   0.0000
    67 H14         -8.4968     7.9315   -31.6082 H            1 F42201   0.0000
    68 H5'1       -10.6768    10.9004   -29.9532 H            1 F42201   0.0000
    69 H5'2       -10.3353    10.9159   -31.5501 H            1 F42201   0.0000
    70 H1I        -11.0592    14.3434   -28.9159 H            1 F42201   0.0000
    71 H2I1       -12.3930    13.2828   -27.2215 H            1 F42201   0.0000
    72 H2I2       -11.9028    12.1215   -28.2596 H            1 F42201   0.0000
    73 H2I3       -11.1462    12.3059   -26.8242 H            1 F42201   0.0000
    74 H1H        -11.0629    16.2622   -27.5439 H            1 F42201   0.0000
    75 H22         -8.6748    16.2657   -25.9165 H            1 F42201   0.0000
    76 H3H1        -8.8680    18.6674   -27.2539 H            1 F42201   0.0000
    77 H3H2        -8.7673    17.4225   -28.3059 H            1 F42201   0.0000
    78 H4H1        -6.8303    16.6384   -27.0401 H            1 F42201   0.0000
    79 H4H2        -6.8754    18.0508   -26.2218 H            1 F42201   0.0000
    80 H1G         -7.4618    19.8987   -28.2921 H            1 F42201   0.0000
    81 H28         -4.7546    19.9053   -29.3052 H            1 F42201   0.0000
    82 H3G1        -5.3682    21.6223   -30.6717 H            1 F42201   0.0000
    83 H3G2        -6.6381    22.0277   -29.7285 H            1 F42201   0.0000
    84 H4G1        -7.9067    20.2993   -30.4898 H            1 F42201   0.0000
    85 H4G2        -6.6044    19.4684   -31.0192 H            1 F42201   0.0000
@<TRIPOS>BOND
     1    1    2       1
     2    1   17       2
     3    2    3       2
     4    2    4       1
     5    4    5       1
     6    5    6       2
     7    5    7       1
     8    7    8       2
     9    7   17       1
    10    8    9       1
    11    9   10      ar
    12    9   15      ar
    13   10   11      ar
    14   11   12      ar
    15   12   13       1
    16   12   14      ar
    17   14   15      ar
    18   15   16       1
    19   16   17       1
    20   16   18       1
    21   18   19       1
    22   19   20       1
    23   19   21       1
    24   21   22       1
    25   21   23       1
    26   23   24       1
    27   23   25       1
    28   25   26       1
    29   26   27       1
    30   27   28      ar
    31   27   29      ar
    32   27   30       1
    33   30   31       1
    34   31   32       1
    35   31   33       1
    36   33   34       2
    37   33   35      am
    38   35   36       1
    39   36   37       1
    40   36   40       1
    41   37   38      ar
    42   37   39      ar
    43   40   41       1
    44   41   42       1
    45   42   43       2
    46   42   44      am
    47   44   45       1
    48   45   46       1
    49   45   49       1
    50   46   47      ar
    51   46   48      ar
    52   49   50       1
    53   50   51       1
    54   51   52      ar
    55   51   53      ar
    56    4   54       1
    57    8   55       1
    58   10   56       1
    59   11   57       1
    60   13   58       1
    61   14   59       1
    62   18   60       1
    63   18   61       1
    64   19   62       1
    65   20   63       1
    66   21   64       1
    67   22   65       1
    68   23   66       1
    69   24   67       1
    70   25   68       1
    71   25   69       1
    72   49   83       1
    73   31   70       1
    74   32   71       1
    75   32   72       1
    76   32   73       1
    77   35   74       1
    78   36   75       1
    79   50   85       1
    80   40   76       1
    81   40   77       1
    82   41   78       1
    83   41   79       1
    84   44   80       1
    85   45   81       1
    86   50   84       1
    87   49   82       1
@<TRIPOS>SUBSTRUCTURE
     1 F42201      1 GROUP             4 N     F42     0 **** F42 N 201
