@<TRIPOS>MOLECULE
4bby_FAD_2_ligand
   84    89     1     0     0
SMALL
NO_CHARGES


@<TRIPOS>ATOM
     1 O2P         45.6900    45.9200    74.5970 O.co2        1 FAD999   0.0000
     2 P           46.1850    46.9110    73.6030 P.3          1 FAD999   0.0000
     3 O1P         45.8240    48.3030    73.8680 O.co2        1 FAD999  -1.0000
     4 O5'         45.3330    46.4760    72.2310 O.3          1 FAD999   0.0000
     5 C5'         45.5270    45.1980    71.6640 C.3          1 FAD999   0.0000
     6 C4'         44.2260    44.9080    70.7900 C.3          1 FAD999   0.0000
     7 O4'         44.2240    45.8840    69.7220 O.3          1 FAD999   0.0000
     8 C3'         44.1380    43.4760    70.3070 C.3          1 FAD999   0.0000
     9 O3'         45.2600    43.1600    69.4550 O.3          1 FAD999   0.0000
    10 C2'         44.0780    42.4570    71.4400 C.3          1 FAD999   0.0000
    11 O2'         43.0220    42.7980    72.4000 O.3          1 FAD999   0.0000
    12 C1'         43.6850    41.0520    70.8830 C.3          1 FAD999   0.0000
    13 N10         42.2800    40.7110    71.0860 N.pl3        1 FAD999   0.0000
    14 C9A         41.8350    40.0080    72.2750 C.ar         1 FAD999   0.0000
    15 C9          42.7740    39.6660    73.2860 C.ar         1 FAD999   0.0000
    16 C8          42.3600    38.9110    74.4120 C.ar         1 FAD999   0.0000
    17 C8M         43.4910    38.5670    75.3920 C.3          1 FAD999   0.0000
    18 C7          40.9160    38.5880    74.6250 C.ar         1 FAD999   0.0000
    19 C7M         40.4100    37.8310    75.8480 C.3          1 FAD999   0.0000
    20 C6          39.9880    38.9500    73.6360 C.ar         1 FAD999   0.0000
    21 C5X         40.4060    39.6390    72.4850 C.ar         1 FAD999   0.0000
    22 N5          39.5160    39.9180    71.5090 N.2          1 FAD999   0.0000
    23 C10         41.3310    41.0250    70.1770 C.2          1 FAD999   0.0000
    24 C4X         39.9350    40.6690    70.4310 C.2          1 FAD999   0.0000
    25 C4          39.0110    41.1380    69.3540 C.2          1 FAD999   0.0000
    26 O4          37.7960    40.8920    69.4260 O.2          1 FAD999   0.0000
    27 N3          39.4890    41.7810    68.2610 N.pl3        1 FAD999   0.0000
    28 C2          40.7660    42.1120    68.1020 C.2          1 FAD999   0.0000
    29 O2          41.2260    42.7330    67.0780 O.2          1 FAD999   0.0000
    30 N1          41.6330    41.7530    69.0550 N.2          1 FAD999   0.0000
    31 O3P         47.6610    46.8060    73.0860 O.3          1 FAD999   0.0000
    32 PA          48.9200    46.1160    73.7740 P.3          1 FAD999   0.0000
    33 O1A         49.2800    47.0450    74.9920 O.co2        1 FAD999   0.0000
    34 O2A         48.6930    44.7320    74.0200 O.co2        1 FAD999  -1.0000
    35 O5B         49.9600    46.3140    72.6000 O.3          1 FAD999   0.0000
    36 C5B         49.7730    45.6460    71.3070 C.3          1 FAD999   0.0000
    37 C4B         50.9200    46.1450    70.4850 C.3          1 FAD999   0.0000
    38 C3B         52.3160    46.0360    71.1450 C.3          1 FAD999   0.0000
    39 O3B         53.1980    45.7870    70.0230 O.3          1 FAD999   0.0000
    40 C2B         52.5480    47.4890    71.5680 C.3          1 FAD999   0.0000
    41 O2B         53.9180    47.8670    71.6880 O.3          1 FAD999   0.0000
    42 C1B         51.8970    48.3550    70.4570 C.3          1 FAD999   0.0000
    43 O4B         50.7470    47.5370    70.1110 O.3          1 FAD999   0.0000
    44 N9A         51.2670    49.5860    70.9870 N.pl3        1 FAD999   0.0000
    45 C4A         51.4160    50.7740    70.5150 C.ar         1 FAD999   0.0000
    46 C5A         50.5690    51.6940    71.3140 C.ar         1 FAD999   0.0000
    47 N7A         49.8880    50.9080    72.0970 N.2          1 FAD999   0.0000
    48 C8A         50.3860    49.6660    71.9820 C.2          1 FAD999   0.0000
    49 N3A         52.2020    51.2550    69.6320 N.ar         1 FAD999   0.0000
    50 C2A         52.1550    52.5530    69.3100 C.ar         1 FAD999   0.0000
    51 N1A         51.3590    53.4590    69.9440 N.ar         1 FAD999   0.0000
    52 C6A         50.5640    53.1010    70.9590 C.ar         1 FAD999   0.0000
    53 N6A         49.8370    54.0580    71.5760 N.pl3        1 FAD999   0.0000
    54 H5'1        45.6242    44.5094    72.3826 H            1 FAD999   0.0000
    55 H5'2        46.3429    45.1939    71.0858 H            1 FAD999   0.0000
    56 H4'         43.4273    45.0847    71.3652 H            1 FAD999   0.0000
    57 H4          44.7192    45.5173    68.9344 H            1 FAD999   0.0000
    58 H3'         43.3030    43.3840    69.7646 H            1 FAD999   0.0000
    59 H6          45.0275    43.3711    68.5056 H            1 FAD999   0.0000
    60 H2'         44.9620    42.4074    71.9048 H            1 FAD999   0.0000
    61 H8          43.4263    42.9411    73.3034 H            1 FAD999   0.0000
    62 H1'1        44.2463    40.3627    71.3410 H            1 FAD999   0.0000
    63 H1'2        43.8745    41.0375    69.9012 H            1 FAD999   0.0000
    64 H11         43.7268    39.9581    73.2028 H            1 FAD999   0.0000
    65 H8M1        43.1212    38.0367    76.1549 H            1 FAD999   0.0000
    66 H8M2        44.1893    38.0291    74.9196 H            1 FAD999   0.0000
    67 H8M3        43.8991    39.4112    75.7396 H            1 FAD999   0.0000
    68 H7M1        39.4175    37.7251    75.7874 H            1 FAD999   0.0000
    69 H7M2        40.8400    36.9288    75.8831 H            1 FAD999   0.0000
    70 H7M3        40.6407    38.3426    76.6757 H            1 FAD999   0.0000
    71 H18         39.0227    38.7159    73.7514 H            1 FAD999   0.0000
    72 H19         38.8451    42.0195    67.5340 H            1 FAD999   0.0000
    73 H5B1        48.8992    45.9040    70.8947 H            1 FAD999   0.0000
    74 H5B2        49.8127    44.6521    71.4094 H            1 FAD999   0.0000
    75 H4B         50.9427    45.6074    69.6421 H            1 FAD999   0.0000
    76 H3B         52.3795    45.3674    71.8859 H            1 FAD999   0.0000
    77 H24         54.1386    45.6999    70.3513 H            1 FAD999   0.0000
    78 H2B         52.0810    47.6591    72.4358 H            1 FAD999   0.0000
    79 H26         54.1012    48.1632    72.6254 H            1 FAD999   0.0000
    80 H1B         52.5063    48.5260    69.6827 H            1 FAD999   0.0000
    81 H8A         50.1279    48.8988    72.5691 H            1 FAD999   0.0000
    82 H2A         52.7361    52.8758    68.5629 H            1 FAD999   0.0000
    83 H6A1        49.8935    55.0069    71.2655 H            1 FAD999   0.0000
    84 H6A2        49.2424    53.8175    72.3432 H            1 FAD999   0.0000
@<TRIPOS>BOND
     1    1    2      ar
     2    2    3      ar
     3    2    4       1
     4    2   31       1
     5    4    5       1
     6    5    6       1
     7    6    7       1
     8    6    8       1
     9    8    9       1
    10    8   10       1
    11   10   11       1
    12   10   12       1
    13   12   13       1
    14   13   14       1
    15   13   23       1
    16   14   15      ar
    17   14   21      ar
    18   15   16      ar
    19   16   17       1
    20   16   18      ar
    21   18   19       1
    22   18   20      ar
    23   20   21      ar
    24   21   22       1
    25   22   24       2
    26   23   24       1
    27   23   30       2
    28   24   25       1
    29   25   26       2
    30   25   27       1
    31   27   28       1
    32   28   29       2
    33   28   30       1
    34   31   32       1
    35   32   33      ar
    36   32   34      ar
    37   32   35       1
    38   35   36       1
    39   36   37       1
    40   37   38       1
    41   37   43       1
    42   38   39       1
    43   38   40       1
    44   40   41       1
    45   40   42       1
    46   42   43       1
    47   42   44       1
    48   44   45       1
    49   44   48       1
    50   45   46      ar
    51   45   49      ar
    52   46   47       1
    53   46   52      ar
    54   47   48       2
    55   49   50      ar
    56   50   51      ar
    57   51   52      ar
    58   52   53       1
    59   53   84       1
    60    5   54       1
    61    5   55       1
    62    6   56       1
    63    7   57       1
    64    8   58       1
    65    9   59       1
    66   10   60       1
    67   11   61       1
    68   12   62       1
    69   12   63       1
    70   15   64       1
    71   17   65       1
    72   17   66       1
    73   17   67       1
    74   19   68       1
    75   19   69       1
    76   19   70       1
    77   20   71       1
    78   27   72       1
    79   53   83       1
    80   36   73       1
    81   36   74       1
    82   37   75       1
    83   38   76       1
    84   39   77       1
    85   40   78       1
    86   41   79       1
    87   42   80       1
    88   48   81       1
    89   50   82       1
@<TRIPOS>SUBSTRUCTURE
     1 FAD999      1 GROUP             4 B     FAD     0 **** FAD B 999
