@<TRIPOS>MOLECULE
1zrz_BI1_1_ligand
   56    60     1     0     0
SMALL
NO_CHARGES


@<TRIPOS>ATOM
     1 CBD        -11.2450    24.7870    23.0670 C.3          1 BI11000   0.0000
     2 NBC        -10.9000    23.6670    22.2090 N.4          1 BI11000   1.0000
     3 CBE        -10.9470    22.3110    22.7580 C.3          1 BI11000   0.0000
     4 CBB        -10.5320    24.0460    20.8220 C.3          1 BI11000   0.0000
     5 CBA        -10.1970    22.8530    19.9290 C.3          1 BI11000   0.0000
     6 CAY         -8.8690    23.1630    19.2510 C.3          1 BI11000   0.0000
     7 NAH         -8.5150    22.0610    18.3450 N.pl3        1 BI11000   0.0000
     8 CAW         -8.0690    20.8400    18.7800 C.2          1 BI11000   0.0000
     9 CAE         -8.5850    22.0960    16.9930 C.ar         1 BI11000   0.0000
    10 CAF         -8.9720    23.1040    16.0530 C.ar         1 BI11000   0.0000
    11 CAA         -8.9440    22.8450    14.6690 C.ar         1 BI11000   0.0000
    12 CAB         -8.5300    21.5660    14.1790 C.ar         1 BI11000   0.0000
    13 CAC         -8.1390    20.5410    15.0950 C.ar         1 BI11000   0.0000
    14 CAD         -8.1700    20.8210    16.5000 C.ar         1 BI11000   0.0000
    15 CAG         -7.8580    20.0740    17.6410 C.2          1 BI11000   0.0000
    16 CAI         -7.3510    18.6300    17.7670 C.2          1 BI11000   0.0000
    17 CAT         -6.2980    18.0070    16.9250 C.2          1 BI11000   0.0000
    18 OAZ         -5.6880    18.6160    15.9810 O.2          1 BI11000   0.0000
    19 NAU         -6.0130    16.7280    17.2250 N.am         1 BI11000   0.0000
    20 CAV         -6.8050    16.4080    18.2330 C.2          1 BI11000   0.0000
    21 OAX         -6.7460    15.2420    18.7350 O.2          1 BI11000   0.0000
    22 CAJ         -7.7110    17.5110    18.6850 C.2          1 BI11000   0.0000
    23 CAK         -8.7160    17.4240    19.8290 C.2          1 BI11000   0.0000
    24 CAM        -10.0040    18.0400    19.9650 C.ar         1 BI11000   0.0000
    25 CAP        -10.8120    18.9050    19.1480 C.ar         1 BI11000   0.0000
    26 CAQ        -12.0730    19.3400    19.6200 C.ar         1 BI11000   0.0000
    27 CAR        -12.5100    18.9080    20.8960 C.ar         1 BI11000   0.0000
    28 CAS        -11.7210    18.0440    21.7220 C.ar         1 BI11000   0.0000
    29 CAN        -10.4360    17.6020    21.2400 C.ar         1 BI11000   0.0000
    30 NAO         -9.4660    16.7930    21.7840 N.pl3        1 BI11000   0.0000
    31 CAL         -8.4020    16.6600    20.9590 C.2          1 BI11000   0.0000
    32 HBD1       -11.1653    25.6395    22.5505 H            1 BI11000   0.0000
    33 HBD2       -12.1847    24.6808    23.3920 H            1 BI11000   0.0000
    34 HBD3       -10.6225    24.8118    23.8492 H            1 BI11000   0.0000
    35 HBE1       -10.6848    21.6554    22.0499 H            1 BI11000   0.0000
    36 HBE2       -10.3131    22.2411    23.5282 H            1 BI11000   0.0000
    37 HBE3       -11.8753    22.1101    23.0710 H            1 BI11000   0.0000
    38 HBB1        -9.7331    24.6463    20.8600 H            1 BI11000   0.0000
    39 HBB2       -11.3007    24.5394    20.4148 H            1 BI11000   0.0000
    40 HBA1       -10.9123    22.7270    19.2416 H            1 BI11000   0.0000
    41 HBA2       -10.1153    22.0232    20.4810 H            1 BI11000   0.0000
    42 HAY1        -8.1563    23.2667    19.9448 H            1 BI11000   0.0000
    43 HAY2        -8.9513    24.0115    18.7282 H            1 BI11000   0.0000
    44 HAW         -7.9244    20.5573    19.7282 H            1 BI11000   0.0000
    45 HAF         -9.2653    24.0014    16.3826 H            1 BI11000   0.0000
    46 HAA         -9.2153    23.5598    14.0244 H            1 BI11000   0.0000
    47 HAB         -8.5142    21.3892    13.1949 H            1 BI11000   0.0000
    48 HAC         -7.8489    19.6441    14.7613 H            1 BI11000   0.0000
    49 HAU         -5.3398    16.1396    16.7772 H            1 BI11000   0.0000
    50 HAP        -10.4839    19.1978    18.2499 H            1 BI11000   0.0000
    51 HAQ        -12.6453    19.9416    19.0627 H            1 BI11000   0.0000
    52 HAR        -13.3999    19.2168    21.2317 H            1 BI11000   0.0000
    53 HAS        -12.0557    17.7522    22.6180 H            1 BI11000   0.0000
    54 HAO         -9.5383    16.3561    22.6806 H            1 BI11000   0.0000
    55 HAL         -7.5699    16.1297    21.1216 H            1 BI11000   0.0000
    56 HBC         -9.9427    23.7476    22.4865 H            1 BI11000   0.0000
@<TRIPOS>BOND
     1    1    2       1
     2    2    3       1
     3    2    4       1
     4    4    5       1
     5    5    6       1
     6    6    7       1
     7    7    8       1
     8    7    9       1
     9    8   15       2
    10    9   10      ar
    11    9   14      ar
    12   10   11      ar
    13   11   12      ar
    14   12   13      ar
    15   13   14      ar
    16   14   15       1
    17   15   16       1
    18   16   17       1
    19   16   22       2
    20   17   18       2
    21   17   19      am
    22   19   20      am
    23   20   21       2
    24   20   22       1
    25   22   23       1
    26   23   24       1
    27   23   31       2
    28   24   25      ar
    29   24   29      ar
    30   25   26      ar
    31   26   27      ar
    32   27   28      ar
    33   28   29      ar
    34   29   30       1
    35   30   31       1
    36    1   32       1
    37    1   33       1
    38    1   34       1
    39    3   35       1
    40    3   36       1
    41    3   37       1
    42    4   38       1
    43    4   39       1
    44    5   40       1
    45    5   41       1
    46    6   42       1
    47    6   43       1
    48    8   44       1
    49   10   45       1
    50   11   46       1
    51   12   47       1
    52   13   48       1
    53   19   49       1
    54   25   50       1
    55   26   51       1
    56   27   52       1
    57   28   53       1
    58   30   54       1
    59   31   55       1
    60    2   56       1
@<TRIPOS>SUBSTRUCTURE
     1 BI11000     1 GROUP             4 A     BI1     0 **** BI1 A1000
