@<TRIPOS>MOLECULE
3a4o_STU_1_ligand
   62    69     1     0     0
SMALL
NO_CHARGES


@<TRIPOS>ATOM
     1 O4          -2.6710   -25.1710   -19.4540 O.3          1 STU902   0.0000
     2 C25         -2.2480   -24.4910   -18.2460 C.3          1 STU902   0.0000
     3 C24         -3.2940   -24.4990   -17.1250 C.3          1 STU902   0.0000
     4 C23         -4.6190   -25.0330   -17.5980 C.3          1 STU902   0.0000
     5 C22         -4.7620   -24.2120   -18.8620 C.3          1 STU902   0.0000
     6 C21         -3.9320   -24.7970   -19.9590 C.3          1 STU902   0.0000
     7 C26         -4.5820   -26.0670   -20.3920 C.3          1 STU902   0.0000
     8 N2          -3.9640   -23.8180   -21.0600 N.pl3        1 STU902   0.0000
     9 C18         -3.2060   -22.6700   -20.7170 C.ar         1 STU902   0.0000
    10 C19         -2.2570   -22.3750   -19.6330 C.ar         1 STU902   0.0000
    11 C6          -1.5850   -21.1330   -19.6040 C.ar         1 STU902   0.0000
    12 C7          -1.7730   -20.1360   -20.6210 C.ar         1 STU902   0.0000
    13 C10         -2.6640   -20.3830   -21.6720 C.ar         1 STU902   0.0000
    14 C11         -3.3370   -21.6400   -21.6830 C.ar         1 STU902   0.0000
    15 C12         -4.3290   -22.0700   -22.5990 C.ar         1 STU902   0.0000
    16 C17         -4.5880   -23.3930   -22.1720 C.ar         1 STU902   0.0000
    17 C16         -5.5710   -24.1080   -22.8530 C.ar         1 STU902   0.0000
    18 C15         -6.2150   -23.5300   -23.9760 C.ar         1 STU902   0.0000
    19 C14         -5.8880   -22.2350   -24.4210 C.ar         1 STU902   0.0000
    20 C13         -4.9320   -21.4780   -23.7200 C.ar         1 STU902   0.0000
    21 C9          -2.6440   -19.1050   -22.5290 C.3          1 STU902   0.0000
    22 N1          -1.7120   -18.2250   -21.8080 N.am         1 STU902   0.0000
    23 C8          -1.1620   -18.8810   -20.7420 C.2          1 STU902   0.0000
    24 O5          -0.2480   -18.4520   -20.0640 O.2          1 STU902   0.0000
    25 C5          -0.7600   -21.1220   -18.4460 C.ar         1 STU902   0.0000
    26 C20         -0.9750   -22.3960   -17.8770 C.ar         1 STU902   0.0000
    27 C1          -0.2870   -22.7930   -16.6990 C.ar         1 STU902   0.0000
    28 C2           0.6090   -21.8820   -16.0940 C.ar         1 STU902   0.0000
    29 C3           0.8000   -20.6000   -16.6440 C.ar         1 STU902   0.0000
    30 C4           0.1220   -20.2140   -17.8350 C.ar         1 STU902   0.0000
    31 N3          -1.8480   -23.1130   -18.5810 N.pl3        1 STU902   0.0000
    32 O6          -5.0340   -23.0190   -18.8880 O.3          1 STU902   0.0000
    33 C27         -6.3250   -22.3730   -18.8250 C.3          1 STU902   0.0000
    34 N4          -5.6280   -24.7260   -16.5980 N.4          1 STU902   1.0000
    35 C28         -6.1030   -26.0050   -16.0730 C.3          1 STU902   0.0000
    36 H1          -1.4366   -24.9644   -17.9032 H            1 STU902   0.0000
    37 H2          -3.4215   -23.5636   -16.7951 H            1 STU902   0.0000
    38 H3          -2.9621   -25.0739   -16.3771 H            1 STU902   0.0000
    39 H4          -4.5762   -26.0127   -17.7941 H            1 STU902   0.0000
    40 H5          -5.6504   -24.5638   -19.1568 H            1 STU902   0.0000
    41 H6          -5.4888   -25.8676   -20.7634 H            1 STU902   0.0000
    42 H7          -4.0225   -26.5048   -21.0958 H            1 STU902   0.0000
    43 H8          -4.6707   -26.6805   -19.6073 H            1 STU902   0.0000
    44 H9          -5.8219   -25.0274   -22.5501 H            1 STU902   0.0000
    45 H10         -6.9156   -24.0527   -24.4618 H            1 STU902   0.0000
    46 H11         -6.3334   -21.8551   -25.2318 H            1 STU902   0.0000
    47 H12         -4.6906   -20.5518   -24.0096 H            1 STU902   0.0000
    48 H13         -3.5547   -18.6953   -22.5816 H            1 STU902   0.0000
    49 H14         -2.3117   -19.2985   -23.4521 H            1 STU902   0.0000
    50 H15         -1.5090   -17.2793   -22.0619 H            1 STU902   0.0000
    51 H16         -0.4339   -23.7003   -16.3050 H            1 STU902   0.0000
    52 H17          1.1099   -22.1496   -15.2709 H            1 STU902   0.0000
    53 H18          1.4174   -19.9548   -16.1940 H            1 STU902   0.0000
    54 H19          0.2714   -19.3083   -18.2318 H            1 STU902   0.0000
    55 H20         -6.2041   -21.3814   -18.8700 H            1 STU902   0.0000
    56 H21         -6.8870   -22.6755   -19.5948 H            1 STU902   0.0000
    57 H22         -6.7773   -22.6150   -17.9666 H            1 STU902   0.0000
    58 H23         -6.3846   -24.2225   -17.0152 H            1 STU902   0.0000
    59 H24         -6.8027   -25.8407   -15.3777 H            1 STU902   0.0000
    60 H25         -6.4935   -26.5465   -16.8175 H            1 STU902   0.0000
    61 H26         -5.3377   -26.5026   -15.6647 H            1 STU902   0.0000
    62 H27         -5.2288   -24.1786   -15.8625 H            1 STU902   0.0000
@<TRIPOS>BOND
     1    1    2       1
     2    1    6       1
     3    2    3       1
     4    2   31       1
     5    3    4       1
     6    4    5       1
     7    4   34       1
     8    5    6       1
     9    5   32       1
    10    6    7       1
    11    6    8       1
    12    8    9       1
    13    8   16       1
    14    9   10      ar
    15    9   14      ar
    16   10   11      ar
    17   10   31       1
    18   11   12      ar
    19   11   25       1
    20   12   13      ar
    21   12   23       1
    22   13   14      ar
    23   13   21       1
    24   14   15       1
    25   15   16      ar
    26   15   20      ar
    27   16   17      ar
    28   17   18      ar
    29   18   19      ar
    30   19   20      ar
    31   21   22       1
    32   22   23      am
    33   23   24       2
    34   25   26      ar
    35   25   30      ar
    36   26   27      ar
    37   26   31       1
    38   27   28      ar
    39   28   29      ar
    40   29   30      ar
    41   32   33       1
    42   34   35       1
    43    2   36       1
    44    3   37       1
    45    3   38       1
    46    4   39       1
    47    5   40       1
    48    7   41       1
    49    7   42       1
    50    7   43       1
    51   17   44       1
    52   18   45       1
    53   19   46       1
    54   20   47       1
    55   21   48       1
    56   21   49       1
    57   22   50       1
    58   27   51       1
    59   28   52       1
    60   29   53       1
    61   30   54       1
    62   33   55       1
    63   33   56       1
    64   33   57       1
    65   34   58       1
    66   35   59       1
    67   35   60       1
    68   35   61       1
    69   34   62       1
@<TRIPOS>SUBSTRUCTURE
     1 STU902      1 GROUP             4 X     STU     0 **** STU X 902
