@<TRIPOS>MOLECULE
3vqm_VAL_ILE_LYS_ILE_GLU_6_ligand
   94    93     5     0     0
SMALL
NO_CHARGES


@<TRIPOS>ATOM
     1 N          -53.0950    -2.3770     8.3260 N.4          1 VAL119   1.0000
     2 CA         -52.6810    -2.1400     9.7050 C.3          1 VAL119   0.0000
     3 C          -53.8600    -1.6730    10.5580 C.2          1 VAL119   0.0000
     4 O          -54.4900    -0.6570    10.2620 O.2          1 VAL119   0.0000
     5 CB         -51.5370    -1.1110     9.7800 C.3          1 VAL119   0.0000
     6 CG1        -51.0890    -0.9190    11.2220 C.3          1 VAL119   0.0000
     7 CG2        -50.3710    -1.5550     8.9080 C.3          1 VAL119   0.0000
     8 H1         -52.5583    -3.1279     7.9412 H            1 VAL119   0.0000
     9 H2         -54.0657    -2.6166     8.3059 H            1 VAL119   0.0000
    10 HA         -52.3473    -3.0039    10.0822 H            1 VAL119   0.0000
    11 HB         -51.8754    -0.2357     9.4344 H            1 VAL119   0.0000
    12 HG11       -50.3471    -0.2492    11.2542 H            1 VAL119   0.0000
    13 HG12       -51.8587    -0.5904    11.7692 H            1 VAL119   0.0000
    14 HG13       -50.7668    -1.7913    11.5899 H            1 VAL119   0.0000
    15 HG21       -49.6358    -0.8795     8.9652 H            1 VAL119   0.0000
    16 HG22       -50.0349    -2.4413     9.2268 H            1 VAL119   0.0000
    17 HG23       -50.6762    -1.6359     7.9592 H            1 VAL119   0.0000
    18 N          -54.1430    -2.4260    11.6170 N.am         2 ILE120   0.0000
    19 CA         -55.3120    -2.1960    12.4630 C.3          2 ILE120   0.0000
    20 C          -55.3600    -0.8010    13.0820 C.2          2 ILE120   0.0000
    21 O          -54.4100    -0.3670    13.7350 O.2          2 ILE120   0.0000
    22 CB         -55.3850    -3.2440    13.5880 C.3          2 ILE120   0.0000
    23 CG1        -55.4300    -4.6520    12.9920 C.3          2 ILE120   0.0000
    24 CG2        -56.5900    -2.9890    14.4840 C.3          2 ILE120   0.0000
    25 CD1        -55.1530    -5.7460    13.9910 C.3          2 ILE120   0.0000
    26 H11        -53.5293    -3.1822    11.8441 H            2 ILE120   0.0000
    27 H12        -56.1264    -2.3042    11.8929 H            2 ILE120   0.0000
    28 H13        -54.5579    -3.1651    14.1445 H            2 ILE120   0.0000
    29 H14        -54.7456    -4.7084    12.2651 H            2 ILE120   0.0000
    30 H15        -56.3400    -4.8015    12.6053 H            2 ILE120   0.0000
    31 H16        -56.6197    -3.6791    15.2071 H            2 ILE120   0.0000
    32 H17        -56.5143    -2.0799    14.8937 H            2 ILE120   0.0000
    33 H18        -57.4272    -3.0406    13.9395 H            2 ILE120   0.0000
    34 HD11       -55.1987    -6.6342    13.5339 H            2 ILE120   0.0000
    35 HD12       -54.2410    -5.6183    14.3809 H            2 ILE120   0.0000
    36 HD13       -55.8355    -5.7113    14.7211 H            2 ILE120   0.0000
    37 N          -56.4740    -0.1050    12.8700 N.am         3 LYS121   0.0000
    38 CA         -56.6800     1.2130    13.4560 C.3          3 LYS121   0.0000
    39 C          -56.9230     1.1040    14.9560 C.2          3 LYS121   0.0000
    40 O          -57.9620     0.6090    15.3940 O.2          3 LYS121   0.0000
    41 CB         -57.8540     1.9320    12.7830 C.3          3 LYS121   0.0000
    42 CG         -58.3160     3.1880    13.5140 C.3          3 LYS121   0.0000
    43 CD         -57.2170     4.2400    13.5770 C.3          3 LYS121   0.0000
    44 CE         -57.5040     5.2850    14.6500 C.3          3 LYS121   0.0000
    45 NZ         -58.8070     5.9770    14.4470 N.4          3 LYS121   1.0000
    46 H22        -57.1898    -0.4974    12.2924 H            3 LYS121   0.0000
    47 H23        -55.8528     1.7555    13.3096 H            3 LYS121   0.0000
    48 HB1        -58.6244     1.2965    12.7328 H            3 LYS121   0.0000
    49 HB2        -57.5751     2.1914    11.8584 H            3 LYS121   0.0000
    50 HG1        -58.5820     2.9412    14.4458 H            3 LYS121   0.0000
    51 HG2        -59.1043     3.5714    13.0328 H            3 LYS121   0.0000
    52 HD1        -57.1519     4.6954    12.6891 H            3 LYS121   0.0000
    53 HD2        -56.3484     3.7904    13.7854 H            3 LYS121   0.0000
    54 HE1        -56.7736     5.9679    14.6345 H            3 LYS121   0.0000
    55 HE2        -57.5181     4.8322    15.5415 H            3 LYS121   0.0000
    56 HZ1        -58.9447     6.6486    15.1750 H            3 LYS121   0.0000
    57 HZ2        -58.8034     6.4414    13.5614 H            3 LYS121   0.0000
    58 HZ3        -59.5478     5.3057    14.4683 H            3 LYS121   0.0000
    59 N          -55.9570     1.5720    15.7380 N.am         4 ILE122   0.0000
    60 CA         -56.0620     1.5320    17.1890 C.3          4 ILE122   0.0000
    61 C          -56.8140     2.7570    17.6990 C.2          4 ILE122   0.0000
    62 O          -56.2610     3.8540    17.7620 O.2          4 ILE122   0.0000
    63 CB         -54.6730     1.4860    17.8500 C.3          4 ILE122   0.0000
    64 CG1        -53.7090     0.6290    17.0240 C.3          4 ILE122   0.0000
    65 CG2        -54.7790     0.9710    19.2770 C.3          4 ILE122   0.0000
    66 CD1        -54.0490    -0.8470    17.0130 C.3          4 ILE122   0.0000
    67 H35        -55.1368     1.9617    15.3193 H            4 ILE122   0.0000
    68 H36        -56.5697     0.7114    17.4515 H            4 ILE122   0.0000
    69 H37        -54.3121     2.4181    17.8814 H            4 ILE122   0.0000
    70 H38        -52.7897     0.7368    17.4025 H            4 ILE122   0.0000
    71 H39        -53.7223     0.9615    16.0810 H            4 ILE122   0.0000
    72 H40        -53.8692     0.9474    19.6913 H            4 ILE122   0.0000
    73 H41        -55.3711     1.5778    19.8073 H            4 ILE122   0.0000
    74 H42        -55.1664     0.0491    19.2708 H            4 ILE122   0.0000
    75 H43        -53.3794    -1.3392    16.4568 H            4 ILE122   0.0000
    76 H44        -54.0297    -1.2005    17.9482 H            4 ILE122   0.0000
    77 H45        -54.9623    -0.9758    16.6267 H            4 ILE122   0.0000
    78 N          -58.0790     2.5620    18.0620 N.am         5 GLU123   0.0000
    79 CA         -58.9130     3.6490    18.5650 C.3          5 GLU123   0.0000
    80 C          -58.6140     3.9520    20.0310 C.2          5 GLU123   0.0000
    81 O          -59.5200     4.2270    20.8180 O.co2        5 GLU123   0.0000
    82 CB         -60.3960     3.3100    18.3950 C.3          5 GLU123   0.0000
    83 CG         -60.8070     3.0170    16.9620 C.3          5 GLU123   0.0000
    84 CD         -62.2760     2.6590    16.8410 C.2          5 GLU123   0.0000
    85 OE1        -63.0400     2.9560    17.7840 O.co2        5 GLU123   0.0000
    86 OE2        -62.6650     2.0780    15.8060 O.co2        5 GLU123  -1.0000
    87 OXT        -57.4620     3.9240    20.4670 O.co2        5 GLU123  -1.0000
    88 H46        -58.4696     1.6444    17.9881 H            5 GLU123   0.0000
    89 H47        -58.7155     4.4696    18.0287 H            5 GLU123   0.0000
    90 H48        -60.9348     4.0858    18.7235 H            5 GLU123   0.0000
    91 H49        -60.5992     2.5038    18.9507 H            5 GLU123   0.0000
    92 H50        -60.2612     2.2512    16.6220 H            5 GLU123   0.0000
    93 H51        -60.6275     3.8277    16.4047 H            5 GLU123   0.0000
    94 H52        -52.9448    -1.5489     7.7859 H            5 GLU123   0.0000
@<TRIPOS>BOND
     1    1    2       1
     2    2    5       1
     3    2    3       1
     4    5    6       1
     5    5    7       1
     6    3    4       2
     7    1    8       1
     8    1    9       1
     9    2   10       1
    10    3   18      am
    11    5   11       1
    12    6   12       1
    13    6   13       1
    14    6   14       1
    15    7   15       1
    16    7   16       1
    17    7   17       1
    18   18   19       1
    19   19   22       1
    20   19   20       1
    21   22   24       1
    22   22   23       1
    23   23   25       1
    24   20   21       2
    25   25   36       1
    26   18   26       1
    27   19   27       1
    28   20   37      am
    29   22   28       1
    30   23   29       1
    31   23   30       1
    32   24   31       1
    33   24   32       1
    34   24   33       1
    35   25   34       1
    36   25   35       1
    37   37   38       1
    38   38   41       1
    39   38   39       1
    40   41   42       1
    41   42   43       1
    42   43   44       1
    43   44   45       1
    44   39   40       2
    45   45   58       1
    46   37   46       1
    47   38   47       1
    48   39   59      am
    49   41   48       1
    50   41   49       1
    51   42   50       1
    52   42   51       1
    53   43   52       1
    54   43   53       1
    55   44   54       1
    56   44   55       1
    57   45   56       1
    58   45   57       1
    59   59   60       1
    60   60   63       1
    61   60   61       1
    62   63   65       1
    63   63   64       1
    64   64   66       1
    65   61   62       2
    66   66   77       1
    67   59   67       1
    68   60   68       1
    69   61   78      am
    70   63   69       1
    71   64   70       1
    72   64   71       1
    73   65   72       1
    74   65   73       1
    75   65   74       1
    76   66   75       1
    77   66   76       1
    78   78   79       1
    79   79   82       1
    80   79   80       1
    81   82   83       1
    82   83   84       1
    83   84   85      ar
    84   84   86      ar
    85   80   81      ar
    86   80   87      ar
    87   83   93       1
    88   78   88       1
    89   79   89       1
    90   82   90       1
    91   82   91       1
    92   83   92       1
    93    1   94       1
@<TRIPOS>SUBSTRUCTURE
     1 VAL119      1 RESIDUE           4 T     VAL     0 **** VAL T 119
     2 ILE120     18 RESIDUE           4 T     ILE     0 **** ILE T 120
     3 LYS121     37 RESIDUE           4 T     LYS     0 **** LYS T 121
     4 ILE122     59 RESIDUE           4 T     ILE     0 **** ILE T 122
     5 GLU123     78 RESIDUE           4 T     GLU     0 **** GLU T 123
