@<TRIPOS>MOLECULE
2ly0_A2Y_1_ligand
   45    49     1     0     0
SMALL
NO_CHARGES


@<TRIPOS>ATOM
     1 O            0.5140    11.4390    -0.8780 O.2          1 A2Y100   0.0000
     2 S            0.5640    14.0600     0.2650 S.3          1 A2Y100   0.0000
     3 C1           0.5300    14.9720     1.4070 C.2          1 A2Y100   0.0000
     4 N1           0.2990    10.1870    -1.2340 N.2          1 A2Y100   0.0000
     5 C2           0.2360    14.3530     2.5530 C.2          1 A2Y100   0.0000
     6 N2           0.2070     7.3590     0.6510 N.4          1 A2Y100   1.0000
     7 C3           0.0590    13.0540     2.3000 C.2          1 A2Y100   0.0000
     8 C4          -0.3360    10.3910     0.7470 C.2          1 A2Y100   0.0000
     9 C5          -0.5770     8.0870    -0.3530 C.3          1 A2Y100   0.0000
    10 C9          -0.2090     9.5420    -0.2780 C.2          1 A2Y100   0.0000
    11 C10          0.1980     5.8760     0.6400 C.3          1 A2Y100   0.0000
    12 C11          0.1450    11.5900     0.2960 C.2          1 A2Y100   0.0000
    13 C12          0.2370    12.8020     0.9660 C.2          1 A2Y100   0.0000
    14 C61         -1.2250     5.2940     0.8890 C.3          1 A2Y100   0.0000
    15 C62          1.1140     5.3170     1.7630 C.3          1 A2Y100   0.0000
    16 C63          0.7170     5.2870    -0.7080 C.3          1 A2Y100   0.0000
    17 C71         -1.2070     3.7470     0.8980 C.3          1 A2Y100   0.0000
    18 C72          1.1260     3.7730     1.7740 C.3          1 A2Y100   0.0000
    19 C73          0.7230     3.7430    -0.6850 C.3          1 A2Y100   0.0000
    20 C81         -0.2880     3.2390     2.0150 C.3          1 A2Y100   0.0000
    21 C82          1.6420     3.2390     0.4340 C.3          1 A2Y100   0.0000
    22 C83         -0.7000     3.2210    -0.4500 C.3          1 A2Y100   0.0000
    23 H1           0.7078    15.9536     1.3374 H            1 A2Y100   0.0000
    24 H2           0.1610    14.7890     3.4498 H            1 A2Y100   0.0000
    25 H3          -0.1282     7.6466     1.5482 H            1 A2Y100   0.0000
    26 H4          -0.1707    12.3640     2.9864 H            1 A2Y100   0.0000
    27 H5          -0.7056    10.1913     1.6545 H            1 A2Y100   0.0000
    28 H6          -1.5529     7.9753    -0.1655 H            1 A2Y100   0.0000
    29 H7          -0.3701     7.7328    -1.2650 H            1 A2Y100   0.0000
    30 H8          -1.8369     5.6083     0.1632 H            1 A2Y100   0.0000
    31 H9          -1.5604     5.6209     1.7725 H            1 A2Y100   0.0000
    32 H10          0.7802     5.6449     2.6468 H            1 A2Y100   0.0000
    33 H11          2.0462     5.6474     1.6154 H            1 A2Y100   0.0000
    34 H12          1.6486     5.6133    -0.8681 H            1 A2Y100   0.0000
    35 H13          0.1226     5.5988    -1.4493 H            1 A2Y100   0.0000
    36 H14         -2.1346     3.4081     1.0555 H            1 A2Y100   0.0000
    37 H15          1.7266     3.4546     2.5074 H            1 A2Y100   0.0000
    38 H16          1.0574     3.4023    -1.5637 H            1 A2Y100   0.0000
    39 H17         -0.2747     2.2391     2.0102 H            1 A2Y100   0.0000
    40 H18         -0.6233     3.5636     2.8994 H            1 A2Y100   0.0000
    41 H19          1.6388     2.2391     0.4469 H            1 A2Y100   0.0000
    42 H20          2.5735     3.5674     0.2775 H            1 A2Y100   0.0000
    43 H21         -1.3003     3.5419    -1.1826 H            1 A2Y100   0.0000
    44 H22         -0.6930     2.2211    -0.4388 H            1 A2Y100   0.0000
    45 H23          1.1588     7.6462     0.5430 H            1 A2Y100   0.0000
@<TRIPOS>BOND
     1    1    4       1
     2    1   12       1
     3    2    3       1
     4    2   13       1
     5    3    5       2
     6    4   10       2
     7    5    7       1
     8    6    9       1
     9    6   11       1
    10    7   13       2
    11    8   10       1
    12    8   12       2
    13    9   10       1
    14   11   14       1
    15   11   15       1
    16   11   16       1
    17   12   13       1
    18   14   17       1
    19   15   18       1
    20   16   19       1
    21   17   20       1
    22   17   22       1
    23   18   20       1
    24   18   21       1
    25   19   21       1
    26   19   22       1
    27    3   23       1
    28    5   24       1
    29    6   25       1
    30    7   26       1
    31    8   27       1
    32    9   28       1
    33    9   29       1
    34   14   30       1
    35   14   31       1
    36   15   32       1
    37   15   33       1
    38   16   34       1
    39   16   35       1
    40   17   36       1
    41   18   37       1
    42   19   38       1
    43   20   39       1
    44   20   40       1
    45   21   41       1
    46   21   42       1
    47   22   43       1
    48   22   44       1
    49    6   45       1
@<TRIPOS>SUBSTRUCTURE
     1 A2Y100      1 GROUP             4 A     A2Y     0 **** A2Y A 100
