@<TRIPOS>MOLECULE
4zrn_UPG_2_ligand
   58    60     1     0     0
SMALL
NO_CHARGES


@<TRIPOS>ATOM
     1 N1         -34.0190    35.3450    -2.3270 N.pl3        1 UPG402   0.0000
     2 C2         -33.6450    36.3480    -3.2080 C.2          1 UPG402   0.0000
     3 N3         -34.1670    37.5460    -3.1210 N.pl3        1 UPG402   0.0000
     4 C4         -35.0500    37.8420    -2.1920 C.2          1 UPG402   0.0000
     5 C5         -35.4610    36.8730    -1.2950 C.2          1 UPG402   0.0000
     6 C6         -34.9210    35.6180    -1.4060 C.2          1 UPG402   0.0000
     7 O2         -32.8150    36.1360    -4.0540 O.2          1 UPG402   0.0000
     8 O4         -35.5070    38.9560    -2.1230 O.2          1 UPG402   0.0000
     9 C1C        -33.4850    34.0170    -2.4950 C.3          1 UPG402   0.0000
    10 C2C        -32.6680    33.4660    -1.3840 C.3          1 UPG402   0.0000
    11 O2C        -31.3530    33.7790    -1.6790 O.3          1 UPG402   0.0000
    12 C3C        -32.8990    31.9880    -1.4900 C.3          1 UPG402   0.0000
    13 C4C        -34.2300    31.8530    -2.1690 C.3          1 UPG402   0.0000
    14 O4C        -34.5610    33.1400    -2.5970 O.3          1 UPG402   0.0000
    15 O3C        -31.9570    31.3500    -2.3110 O.3          1 UPG402   0.0000
    16 C5C        -35.2680    31.2870    -1.2340 C.3          1 UPG402   0.0000
    17 O5C        -35.2760    32.0350    -0.0620 O.3          1 UPG402   0.0000
    18 PA         -36.4890    32.0920     0.9010 P.3          1 UPG402   0.0000
    19 O1A        -37.7070    32.4200     0.2300 O.co2        1 UPG402   0.0000
    20 O2A        -36.0660    32.9080     1.9910 O.co2        1 UPG402  -1.0000
    21 O3A        -36.6410    30.6310     1.4310 O.3          1 UPG402   0.0000
    22 PB         -35.4900    29.7770     2.0480 P.3          1 UPG402   0.0000
    23 O1B        -34.4870    30.5100     2.7070 O.co2        1 UPG402   0.0000
    24 O2B        -35.1440    28.7400     1.1590 O.co2        1 UPG402  -1.0000
    25 O3B        -36.0980    28.7380     2.9180 O.3          1 UPG402   0.0000
    26 C1'        -37.0850    28.6790     3.8520 C.3          1 UPG402   0.0000
    27 C2'        -36.9670    27.2190     4.2220 C.3          1 UPG402   0.0000
    28 C3'        -38.1360    26.9340     5.0810 C.3          1 UPG402   0.0000
    29 C4'        -38.4370    28.2680     5.6610 C.3          1 UPG402   0.0000
    30 C5'        -39.1270    29.0320     4.5730 C.3          1 UPG402   0.0000
    31 C6'        -38.9350    30.4660     4.9310 C.3          1 UPG402   0.0000
    32 O2'        -37.2140    26.4810     3.0630 O.3          1 UPG402   0.0000
    33 O3'        -37.7840    26.0480     6.0910 O.3          1 UPG402   0.0000
    34 O4'        -39.2140    28.1290     6.8170 O.3          1 UPG402   0.0000
    35 O5'        -38.4050    28.7820     3.3910 O.3          1 UPG402   0.0000
    36 O6'        -39.2330    31.3210     3.8390 O.3          1 UPG402   0.0000
    37 H1         -33.8886    38.2501    -3.7742 H            1 UPG402   0.0000
    38 H2         -36.1335    37.0821    -0.5851 H            1 UPG402   0.0000
    39 H3         -35.2163    34.8980    -0.7779 H            1 UPG402   0.0000
    40 H1C        -32.9530    33.9825    -3.3411 H            1 UPG402   0.0000
    41 H2C        -32.9499    33.8275    -0.4953 H            1 UPG402   0.0000
    42 H6         -30.7568    33.4280    -0.9570 H            1 UPG402   0.0000
    43 H3C        -32.9203    31.5673    -0.5830 H            1 UPG402   0.0000
    44 H4C        -34.1374    31.2530    -2.9636 H            1 UPG402   0.0000
    45 H9         -32.1556    30.3706    -2.3474 H            1 UPG402   0.0000
    46 H5C1       -35.0459    30.3351    -1.0229 H            1 UPG402   0.0000
    47 H5C2       -36.1686    31.3312    -1.6663 H            1 UPG402   0.0000
    48 H1'        -36.9072    29.2823     4.6295 H            1 UPG402   0.0000
    49 H2'        -36.0949    26.9917     4.6554 H            1 UPG402   0.0000
    50 H3'        -38.9060    26.5879     4.5450 H            1 UPG402   0.0000
    51 H4'        -37.5797    28.7273     5.8935 H            1 UPG402   0.0000
    52 H5'        -40.0927    28.7865     4.4886 H            1 UPG402   0.0000
    53 H6'1       -37.9835    30.6078     5.2040 H            1 UPG402   0.0000
    54 H6'2       -39.5385    30.6933     5.6953 H            1 UPG402   0.0000
    55 H19        -37.6214    25.6013     3.3084 H            1 UPG402   0.0000
    56 H20        -38.5817    25.8629     6.6650 H            1 UPG402   0.0000
    57 H21        -39.4098    29.0327     7.1977 H            1 UPG402   0.0000
    58 H6'        -38.6300    31.1038     3.0714 H            1 UPG402   0.0000
@<TRIPOS>BOND
     1    1    2       1
     2    1    6       1
     3    1    9       1
     4    2    3       1
     5    2    7       2
     6    3    4       1
     7    4    5       1
     8    4    8       2
     9    5    6       2
    10    9   10       1
    11    9   14       1
    12   10   11       1
    13   10   12       1
    14   12   13       1
    15   12   15       1
    16   13   14       1
    17   13   16       1
    18   16   17       1
    19   17   18       1
    20   18   19      ar
    21   18   20      ar
    22   18   21       1
    23   21   22       1
    24   22   23      ar
    25   22   24      ar
    26   22   25       1
    27   25   26       1
    28   26   27       1
    29   26   35       1
    30   27   28       1
    31   27   32       1
    32   28   29       1
    33   28   33       1
    34   29   30       1
    35   29   34       1
    36   30   31       1
    37   30   35       1
    38   31   36       1
    39    3   37       1
    40    5   38       1
    41    6   39       1
    42    9   40       1
    43   10   41       1
    44   11   42       1
    45   12   43       1
    46   13   44       1
    47   15   45       1
    48   16   46       1
    49   16   47       1
    50   36   58       1
    51   34   57       1
    52   26   48       1
    53   27   49       1
    54   28   50       1
    55   29   51       1
    56   30   52       1
    57   31   53       1
    58   31   54       1
    59   32   55       1
    60   33   56       1
@<TRIPOS>SUBSTRUCTURE
     1 UPG402      1 GROUP             4 B     UPG     0 **** UPG B 402
