@<TRIPOS>MOLECULE
4f9a_ADP_1_ligand
   39    41     1     0     0
SMALL
NO_CHARGES


@<TRIPOS>ATOM
     1 PB          10.7550    18.4420    29.4290 P.3          1 ADP601   0.0000
     2 O1B         11.0680    18.3240    27.9540 O.co2        1 ADP601   0.0000
     3 O2B         11.9760    18.0590    30.2490 O.co2        1 ADP601  -1.0000
     4 O3B         10.0420    19.7070    29.8260 O.co2        1 ADP601  -1.0000
     5 PA           9.2600    15.9550    29.2300 P.3          1 ADP601   0.0000
     6 O1A          7.8320    15.6140    29.6300 O.co2        1 ADP601   0.0000
     7 O2A          9.5900    15.9120    27.7410 O.co2        1 ADP601  -1.0000
     8 O3A          9.6550    17.3510    29.8780 O.3          1 ADP601   0.0000
     9 O5'         10.1860    14.8670    29.9790 O.3          1 ADP601   0.0000
    10 C5'         11.6110    14.9290    29.9100 C.3          1 ADP601   0.0000
    11 C4'         12.2230    13.5760    29.5460 C.3          1 ADP601   0.0000
    12 O4'         12.0330    12.6040    30.5740 O.3          1 ADP601   0.0000
    13 C3'         11.6480    12.9430    28.2980 C.3          1 ADP601   0.0000
    14 O3'         12.1920    13.5160    27.1120 O.3          1 ADP601   0.0000
    15 C2'         11.8940    11.4520    28.5200 C.3          1 ADP601   0.0000
    16 O2'         13.1510    11.0290    28.0650 O.3          1 ADP601   0.0000
    17 C1'         11.8610    11.2860    30.0370 C.3          1 ADP601   0.0000
    18 N9          10.4650    10.8940    30.3320 N.pl3        1 ADP601   0.0000
    19 C8           9.4450    11.7770    30.4240 C.2          1 ADP601   0.0000
    20 N7           8.2830    11.1270    30.6810 N.2          1 ADP601   0.0000
    21 C5           8.5620     9.8200    30.7540 C.ar         1 ADP601   0.0000
    22 C6           7.7690     8.6170    30.9850 C.ar         1 ADP601   0.0000
    23 N6           6.4450     8.7420    31.2210 N.pl3        1 ADP601   0.0000
    24 N1           8.4080     7.4210    30.9900 N.ar         1 ADP601   0.0000
    25 C2           9.7370     7.3630    30.7710 C.ar         1 ADP601   0.0000
    26 N3          10.5180     8.4440    30.5390 N.ar         1 ADP601   0.0000
    27 C4           9.9920     9.6680    30.5260 C.ar         1 ADP601   0.0000
    28 H5'1        11.9657    15.2154    30.8000 H            1 ADP601   0.0000
    29 H5'2        11.8723    15.5994    29.2156 H            1 ADP601   0.0000
    30 H4'         13.2057    13.7019    29.4103 H            1 ADP601   0.0000
    31 H3'         10.6603    13.0993    28.2955 H            1 ADP601   0.0000
    32 H5          11.7882    13.0723    26.3119 H            1 ADP601   0.0000
    33 H2'         11.1686    10.9114    28.0939 H            1 ADP601   0.0000
    34 H7          13.0964    10.0735    27.7751 H            1 ADP601   0.0000
    35 H1'         12.5352    10.6303    30.3769 H            1 ADP601   0.0000
    36 H9           9.5347    12.7673    30.3178 H            1 ADP601   0.0000
    37 H10          5.8867     7.9280    31.3813 H            1 ADP601   0.0000
    38 H11          6.0231     9.6485    31.2354 H            1 ADP601   0.0000
    39 H12         10.1739     6.4635    30.7806 H            1 ADP601   0.0000
@<TRIPOS>BOND
     1    1    2      ar
     2    1    3      ar
     3    1    4      ar
     4    1    8       1
     5    5    6      ar
     6    5    7      ar
     7    5    8       1
     8    5    9       1
     9    9   10       1
    10   10   11       1
    11   11   12       1
    12   11   13       1
    13   12   17       1
    14   13   14       1
    15   13   15       1
    16   15   16       1
    17   15   17       1
    18   17   18       1
    19   18   19       1
    20   18   27       1
    21   19   20       2
    22   20   21       1
    23   21   22      ar
    24   21   27      ar
    25   22   23       1
    26   22   24      ar
    27   24   25      ar
    28   25   26      ar
    29   26   27      ar
    30   25   39       1
    31   23   38       1
    32   23   37       1
    33   10   28       1
    34   10   29       1
    35   11   30       1
    36   13   31       1
    37   14   32       1
    38   15   33       1
    39   16   34       1
    40   17   35       1
    41   19   36       1
@<TRIPOS>SUBSTRUCTURE
     1 ADP601      1 GROUP             4 A     ADP     0 **** ADP A 601
