@<TRIPOS>MOLECULE
2w3w_VG9_1_ligand
   52    54     1     0     0
SMALL
NO_CHARGES


@<TRIPOS>ATOM
     1 N2          12.3240     2.5150    40.9770 N.pl3        1 VG91168   0.0000
     2 C2          12.8900     3.4990    41.7090 C.ar         1 VG91168   0.0000
     3 N3          12.8500     3.4680    43.0660 N.ar         1 VG91168   0.0000
     4 C4          13.4030     4.4360    43.8070 C.ar         1 VG91168   0.0000
     5 N4          13.3680     4.2000    45.1270 N.pl3        1 VG91168   0.0000
     6 N1          13.4900     4.5160    41.0550 N.ar         1 VG91168   1.0000
     7 C8A         13.9870     5.5470    41.7640 C.ar         1 VG91168   0.0000
     8 N8          14.5240     6.5620    41.0610 N.ar         1 VG91168   0.0000
     9 C7          15.0520     7.6290    41.6840 C.ar         1 VG91168   0.0000
    10 C6          15.0760     7.7530    43.0560 C.ar         1 VG91168   0.0000
    11 C5          14.5300     6.6960    43.8180 C.ar         1 VG91168   0.0000
    12 C5A         14.5260     6.8420    45.3120 C.3          1 VG91168   0.0000
    13 C4A         13.9750     5.5680    43.1630 C.ar         1 VG91168   0.0000
    14 C9          15.7110     8.9930    43.7120 C.3          1 VG91168   0.0000
    15 N10         15.8430    10.0910    42.7350 N.pl3        1 VG91168   0.0000
    16 C11         14.8150    10.8190    42.2170 C.ar         1 VG91168   0.0000
    17 C12         15.0940    11.6620    41.1400 C.ar         1 VG91168   0.0000
    18 O2          16.3690    11.7320    40.6170 O.3          1 VG91168   0.0000
    19 C21         16.6160    12.4590    39.4280 C.3          1 VG91168   0.0000
    20 C22         18.0750    12.2400    39.0660 C.3          1 VG91168   0.0000
    21 C13         14.0880    12.4120    40.5580 C.ar         1 VG91168   0.0000
    22 C14         12.7970    12.3850    41.0580 C.ar         1 VG91168   0.0000
    23 C15         12.4910    11.5570    42.1210 C.ar         1 VG91168   0.0000
    24 C16         13.5020    10.7810    42.7010 C.ar         1 VG91168   0.0000
    25 O5          11.2120    11.4990    42.6170 O.3          1 VG91168   0.0000
    26 C51         10.1430    12.3610    42.1930 C.3          1 VG91168   0.0000
    27 C52          8.9070    12.1310    43.0360 C.3          1 VG91168   0.0000
    28 H1          12.3608     2.5504    39.9783 H            1 VG91168   0.0000
    29 H2          11.8681     1.7511    41.4338 H            1 VG91168   0.0000
    30 H3          13.7566     4.8654    45.7644 H            1 VG91168   0.0000
    31 H4          12.9533     3.3587    45.4737 H            1 VG91168   0.0000
    32 H5          15.4435     8.3631    41.1292 H            1 VG91168   0.0000
    33 H5A1        14.1149     6.0295    45.7252 H            1 VG91168   0.0000
    34 H5A2        15.4654     6.9435    45.6395 H            1 VG91168   0.0000
    35 H5A3        13.9951     7.6503    45.5665 H            1 VG91168   0.0000
    36 H9          16.6172     8.7525    44.0597 H            1 VG91168   0.0000
    37 H10         15.1328     9.2957    44.4697 H            1 VG91168   0.0000
    38 H11         16.7663    10.3202    42.4268 H            1 VG91168   0.0000
    39 H12         16.4422    13.4322    39.5785 H            1 VG91168   0.0000
    40 H13         16.0262    12.1249    38.6928 H            1 VG91168   0.0000
    41 H14         18.2890    12.7403    38.2270 H            1 VG91168   0.0000
    42 H15         18.6562    12.5714    39.8092 H            1 VG91168   0.0000
    43 H16         18.2402    11.2641    38.9235 H            1 VG91168   0.0000
    44 H17         14.2963    12.9827    39.7637 H            1 VG91168   0.0000
    45 H18         12.0890    12.9624    40.6514 H            1 VG91168   0.0000
    46 H19         13.2819    10.1883    43.4758 H            1 VG91168   0.0000
    47 H20          9.9276    12.1707    41.2352 H            1 VG91168   0.0000
    48 H21         10.4322    13.3137    42.2868 H            1 VG91168   0.0000
    49 H22          8.1751    12.7383    42.7271 H            1 VG91168   0.0000
    50 H23          8.6124    11.1799    42.9431 H            1 VG91168   0.0000
    51 H24          9.1170    12.3228    43.9947 H            1 VG91168   0.0000
    52 H25         13.5643     4.5038    40.0578 H            1 VG91168   0.0000
@<TRIPOS>BOND
     1    1    2       1
     2    2    3      ar
     3    2    6      ar
     4    3    4      ar
     5    4    5       1
     6    4   13      ar
     7    6    7      ar
     8    7    8      ar
     9    7   13      ar
    10    8    9      ar
    11    9   10      ar
    12   10   11      ar
    13   10   14       1
    14   11   12       1
    15   11   13      ar
    16   14   15       1
    17   15   16       1
    18   16   17      ar
    19   16   24      ar
    20   17   18       1
    21   17   21      ar
    22   18   19       1
    23   19   20       1
    24   21   22      ar
    25   22   23      ar
    26   23   24      ar
    27   23   25       1
    28   25   26       1
    29   26   27       1
    30    1   28       1
    31    1   29       1
    32    5   30       1
    33    5   31       1
    34    9   32       1
    35   12   33       1
    36   12   34       1
    37   12   35       1
    38   14   36       1
    39   14   37       1
    40   15   38       1
    41   19   39       1
    42   19   40       1
    43   20   41       1
    44   20   42       1
    45   20   43       1
    46   21   44       1
    47   22   45       1
    48   24   46       1
    49   26   47       1
    50   26   48       1
    51   27   49       1
    52   27   50       1
    53   27   51       1
    54    6   52       1
@<TRIPOS>SUBSTRUCTURE
     1 VG91168     1 GROUP             4 A     VG9     0 **** VG9 A1168
