@<TRIPOS>MOLECULE
4ean_IND_2_ligand
   16    17     1     0     0
SMALL
NO_CHARGES


@<TRIPOS>ATOM
     1 N1          56.9380    37.3330     5.6690 N.pl3        1 IND504   0.0000
     2 C2          57.0960    36.1760     6.3240 C.2          1 IND504   0.0000
     3 C3          56.7700    36.3460     7.6480 C.2          1 IND504   0.0000
     4 C4          55.9740    38.4400     8.9100 C.ar         1 IND504   0.0000
     5 C5          55.6550    39.7820     8.7340 C.ar         1 IND504   0.0000
     6 C6          55.7770    40.3730     7.4840 C.ar         1 IND504   0.0000
     7 C7          56.1890    39.6420     6.3720 C.ar         1 IND504   0.0000
     8 C8          56.5050    38.2880     6.5280 C.ar         1 IND504   0.0000
     9 C9          56.3910    37.6860     7.8130 C.ar         1 IND504   0.0000
    10 H1          57.1129    37.4716     4.6942 H            1 IND504   0.0000
    11 H2          57.4044    35.3185     5.9122 H            1 IND504   0.0000
    12 H3          56.7978    35.6451     8.3607 H            1 IND504   0.0000
    13 H4          55.9051    38.0194     9.8146 H            1 IND504   0.0000
    14 H5          55.3362    40.3239     9.5117 H            1 IND504   0.0000
    15 H6          55.5645    41.3446     7.3794 H            1 IND504   0.0000
    16 H7          56.2579    40.0788     5.4751 H            1 IND504   0.0000
@<TRIPOS>BOND
     1    1    2       1
     2    1    8       1
     3    2    3       2
     4    3    9       1
     5    4    5      ar
     6    4    9      ar
     7    5    6      ar
     8    6    7      ar
     9    7    8      ar
    10    8    9      ar
    11    1   10       1
    12    2   11       1
    13    3   12       1
    14    4   13       1
    15    5   14       1
    16    6   15       1
    17    7   16       1
@<TRIPOS>SUBSTRUCTURE
     1 IND504      1 GROUP             4 B     IND     0 **** IND B 504
