@<TRIPOS>MOLECULE
2gpj_FAD_1_ligand
   85    90     1     0     0
SMALL
NO_CHARGES


@<TRIPOS>ATOM
     1 PA           9.6660    34.4590    14.3390 P.3          1 FAD500   0.0000
     2 O1A          9.7530    35.3080    15.5700 O.co2        1 FAD500   0.0000
     3 O2A          8.9790    35.2340    13.2540 O.co2        1 FAD500  -1.0000
     4 O5B         11.1090    34.0150    13.8170 O.3          1 FAD500   0.0000
     5 C5B         12.0110    33.3700    14.6910 C.3          1 FAD500   0.0000
     6 C4B         13.0190    32.5770    13.8780 C.3          1 FAD500   0.0000
     7 O4B         12.4310    31.3990    13.3550 O.3          1 FAD500   0.0000
     8 C3B         13.5580    33.3520    12.6890 C.3          1 FAD500   0.0000
     9 O3B         14.9320    33.0570    12.5860 O.3          1 FAD500   0.0000
    10 C2B         12.8070    32.7830    11.5090 C.3          1 FAD500   0.0000
    11 O2B         13.5690    32.8340    10.3290 O.3          1 FAD500   0.0000
    12 C1B         12.5750    31.3530    11.9540 C.3          1 FAD500   0.0000
    13 N9A         11.3600    30.7370    11.4370 N.pl3        1 FAD500   0.0000
    14 C8A         10.0950    31.2540    11.4240 C.2          1 FAD500   0.0000
    15 N7A          9.2810    30.3210    10.8910 N.2          1 FAD500   0.0000
    16 C5A         10.0100    29.2190    10.5770 C.ar         1 FAD500   0.0000
    17 C6A          9.6900    27.9810    10.0090 C.ar         1 FAD500   0.0000
    18 N6A          8.4160    27.5880     9.8480 N.pl3        1 FAD500   0.0000
    19 N1A         10.7110    27.0640     9.8240 N.ar         1 FAD500   1.0000
    20 C2A         12.0190    27.3430    10.1730 C.ar         1 FAD500   0.0000
    21 N3A         12.3270    28.5680    10.7250 N.ar         1 FAD500   0.0000
    22 C4A         11.3290    29.4740    10.9330 C.ar         1 FAD500   0.0000
    23 N1           3.2140    29.0820    10.0270 N.2          1 FAD500   0.0000
    24 C2           2.7150    27.9740    10.6770 C.2          1 FAD500   0.0000
    25 O2           3.4530    27.3090    11.3840 O.2          1 FAD500   0.0000
    26 N3           1.3930    27.6010    10.5560 N.pl3        1 FAD500   0.0000
    27 C4           0.5490    28.3430     9.7630 C.2          1 FAD500   0.0000
    28 O4          -0.6510    28.0450     9.7500 O.2          1 FAD500   0.0000
    29 C4X          1.0510    29.4580     9.0940 C.2          1 FAD500   0.0000
    30 N5           0.2460    30.2250     8.2760 N.2          1 FAD500   0.0000
    31 C5X          0.7570    31.3320     7.6340 C.ar         1 FAD500   0.0000
    32 C6          -0.0610    32.1020     6.8160 C.ar         1 FAD500   0.0000
    33 C7           0.4640    33.2220     6.1630 C.ar         1 FAD500   0.0000
    34 C7M         -0.4170    33.9430     5.1850 C.3          1 FAD500   0.0000
    35 C8           1.8220    33.5740     6.3220 C.ar         1 FAD500   0.0000
    36 C8M          2.4070    34.8360     5.7150 C.3          1 FAD500   0.0000
    37 C9           2.6360    32.7990     7.1480 C.ar         1 FAD500   0.0000
    38 C9A          2.0980    31.6800     7.7950 C.ar         1 FAD500   0.0000
    39 N10          2.9040    30.9080     8.6010 N.pl3        1 FAD500   0.0000
    40 C10          2.3890    29.8150     9.2410 C.2          1 FAD500   0.0000
    41 C1'          4.3440    31.2540     8.7930 C.3          1 FAD500   0.0000
    42 C2'          4.5580    31.9810    10.1130 C.3          1 FAD500   0.0000
    43 O2'          3.8950    33.2310    10.0700 O.3          1 FAD500   0.0000
    44 C3'          6.0670    32.0980    10.3700 C.3          1 FAD500   0.0000
    45 O3'          6.6090    30.7900    10.4650 O.3          1 FAD500   0.0000
    46 C4'          6.4330    32.9050    11.6250 C.3          1 FAD500   0.0000
    47 O4'          7.7390    33.4660    11.4820 O.3          1 FAD500   0.0000
    48 C5'          6.4060    32.0940    12.9110 C.3          1 FAD500   0.0000
    49 O5'          6.4820    33.0140    13.9810 O.3          1 FAD500   0.0000
    50 P            7.4480    32.7760    15.2330 P.3          1 FAD500   0.0000
    51 O1P          7.0220    33.7220    16.3150 O.co2        1 FAD500   0.0000
    52 O2P          7.4450    31.3750    15.7260 O.co2        1 FAD500  -1.0000
    53 O3P          8.9660    33.0500    14.7110 O.3          1 FAD500   0.0000
    54 H5B1        11.5072    32.7511    15.2936 H            1 FAD500   0.0000
    55 H5B2        12.4899    34.0542    15.2410 H            1 FAD500   0.0000
    56 H4B         13.7829    32.3214    14.4705 H            1 FAD500   0.0000
    57 H3B         13.3989    34.3344    12.7874 H            1 FAD500   0.0000
    58 H5          15.4127    33.8409    12.1930 H            1 FAD500   0.0000
    59 H2B         11.9357    33.2579    11.3852 H            1 FAD500   0.0000
    60 H7          13.3995    33.7007     9.8599 H            1 FAD500   0.0000
    61 H1B         13.3670    30.7917    11.7139 H            1 FAD500   0.0000
    62 H8A          9.8229    32.1592    11.7503 H            1 FAD500   0.0000
    63 H6A1         8.2152    26.6978     9.4391 H            1 FAD500   0.0000
    64 H6A2         7.6681    28.1856    10.1370 H            1 FAD500   0.0000
    65 H2A         12.7361    26.6617    10.0262 H            1 FAD500   0.0000
    66 H13          1.0503    26.7967    11.0414 H            1 FAD500   0.0000
    67 H14         -1.0226    31.8560     6.6945 H            1 FAD500   0.0000
    68 H7M1         0.0814    34.7175     4.7954 H            1 FAD500   0.0000
    69 H7M2        -0.6848    33.3166     4.4529 H            1 FAD500   0.0000
    70 H7M3        -1.2347    34.2753     5.6550 H            1 FAD500   0.0000
    71 H8M1         3.3783    34.8971     5.9447 H            1 FAD500   0.0000
    72 H8M2         2.3007    34.8081     4.7211 H            1 FAD500   0.0000
    73 H8M3         1.9275    35.6344     6.0793 H            1 FAD500   0.0000
    74 H21          3.5976    33.0410     7.2772 H            1 FAD500   0.0000
    75 H1'1         4.6416    31.8441     8.0425 H            1 FAD500   0.0000
    76 H1'2         4.8856    30.4133     8.7909 H            1 FAD500   0.0000
    77 H2'          4.1536    31.4332    10.8454 H            1 FAD500   0.0000
    78 H25          2.9597    33.1240    10.4072 H            1 FAD500   0.0000
    79 H3'          6.4820    32.5488     9.5797 H            1 FAD500   0.0000
    80 H27          7.5931    30.8483    10.6326 H            1 FAD500   0.0000
    81 H4'          5.7787    33.6558    11.7154 H            1 FAD500   0.0000
    82 H29          7.9688    33.9891    12.3027 H            1 FAD500   0.0000
    83 H5'1         7.1861    31.4690    12.9394 H            1 FAD500   0.0000
    84 H5'2         5.5565    31.5696    12.9686 H            1 FAD500   0.0000
    85 H1A         10.4954    26.1725     9.4256 H            1 FAD500   0.0000
@<TRIPOS>BOND
     1    1    2      ar
     2    1    3      ar
     3    1    4       1
     4    1   53       1
     5    4    5       1
     6    5    6       1
     7    6    7       1
     8    6    8       1
     9    7   12       1
    10    8    9       1
    11    8   10       1
    12   10   11       1
    13   10   12       1
    14   12   13       1
    15   13   14       1
    16   13   22       1
    17   14   15       2
    18   15   16       1
    19   16   17      ar
    20   16   22      ar
    21   17   18       1
    22   17   19      ar
    23   19   20      ar
    24   20   21      ar
    25   21   22      ar
    26   23   24       1
    27   23   40       2
    28   24   25       2
    29   24   26       1
    30   26   27       1
    31   27   28       2
    32   27   29       1
    33   29   30       2
    34   29   40       1
    35   30   31       1
    36   31   32      ar
    37   31   38      ar
    38   32   33      ar
    39   33   34       1
    40   33   35      ar
    41   35   36       1
    42   35   37      ar
    43   37   38      ar
    44   38   39       1
    45   39   40       1
    46   39   41       1
    47   41   42       1
    48   42   43       1
    49   42   44       1
    50   44   45       1
    51   44   46       1
    52   46   47       1
    53   46   48       1
    54   48   49       1
    55   49   50       1
    56   50   51      ar
    57   50   52      ar
    58   50   53       1
    59   48   84       1
    60    5   54       1
    61    5   55       1
    62    6   56       1
    63    8   57       1
    64    9   58       1
    65   10   59       1
    66   11   60       1
    67   12   61       1
    68   14   62       1
    69   18   63       1
    70   18   64       1
    71   20   65       1
    72   26   66       1
    73   32   67       1
    74   34   68       1
    75   34   69       1
    76   34   70       1
    77   36   71       1
    78   36   72       1
    79   36   73       1
    80   37   74       1
    81   41   75       1
    82   41   76       1
    83   42   77       1
    84   43   78       1
    85   44   79       1
    86   45   80       1
    87   46   81       1
    88   47   82       1
    89   48   83       1
    90   19   85       1
@<TRIPOS>SUBSTRUCTURE
     1 FAD500      1 GROUP             4 A     FAD     0 **** FAD A 500
