@<TRIPOS>MOLECULE
5bwm_NAI_2_ligand
   71    75     1     0     0
SMALL
NO_CHARGES


@<TRIPOS>ATOM
     1 PA         -17.2020    16.4140    14.3500 P.3          1 NAI301   0.0000
     2 O1A        -18.4530    15.7000    14.7580 O.co2        1 NAI301   0.0000
     3 O2A        -17.2110    17.2180    13.0780 O.co2        1 NAI301  -1.0000
     4 O5B        -16.0130    15.3290    14.3220 O.3          1 NAI301   0.0000
     5 C5B        -15.3090    15.0000    15.5290 C.3          1 NAI301   0.0000
     6 C4B        -14.1770    14.0550    15.1780 C.3          1 NAI301   0.0000
     7 O4B        -14.7060    13.0970    14.2760 O.3          1 NAI301   0.0000
     8 C3B        -13.0820    14.7880    14.4220 C.3          1 NAI301   0.0000
     9 O3B        -11.8150    14.1510    14.6030 O.3          1 NAI301   0.0000
    10 C2B        -13.4410    14.6060    12.9770 C.3          1 NAI301   0.0000
    11 O2B        -12.2620    14.6860    12.1820 O.3          1 NAI301   0.0000
    12 C1B        -14.0830    13.2280    13.0090 C.3          1 NAI301   0.0000
    13 N9A        -15.1060    13.1740    11.9620 N.pl3        1 NAI301   0.0000
    14 C8A        -15.8980    14.1850    11.5720 C.2          1 NAI301   0.0000
    15 N7A        -16.7050    13.7890    10.5530 N.2          1 NAI301   0.0000
    16 C5A        -16.4180    12.5060    10.2720 C.ar         1 NAI301   0.0000
    17 C6A        -16.9050    11.4680     9.3280 C.ar         1 NAI301   0.0000
    18 N6A        -17.8620    11.7210     8.4080 N.pl3        1 NAI301   0.0000
    19 N1A        -16.3310    10.2400     9.4050 N.ar         1 NAI301   0.0000
    20 C2A        -15.3460     9.9490    10.2940 C.ar         1 NAI301   0.0000
    21 N3A        -14.8640    10.8430    11.1760 N.ar         1 NAI301   0.0000
    22 C4A        -15.3520    12.1140    11.2120 C.ar         1 NAI301   0.0000
    23 O3         -16.6260    17.3170    15.5340 O.3          1 NAI301   0.0000
    24 PN         -15.5380    18.4720    15.2040 P.3          1 NAI301   0.0000
    25 O1N        -14.5720    17.9550    14.1750 O.co2        1 NAI301   0.0000
    26 O2N        -14.9910    19.0800    16.4630 O.co2        1 NAI301  -1.0000
    27 O5D        -16.5080    19.5680    14.5160 O.3          1 NAI301   0.0000
    28 C5D        -17.8420    19.7730    14.9970 C.3          1 NAI301   0.0000
    29 C4D        -17.8360    20.6130    16.2870 C.3          1 NAI301   0.0000
    30 O4D        -16.8080    21.5980    16.2420 O.3          1 NAI301   0.0000
    31 C3D        -19.1580    21.3340    16.4380 C.3          1 NAI301   0.0000
    32 O3D        -19.5220    21.3670    17.8100 O.3          1 NAI301   0.0000
    33 C2D        -18.8900    22.7500    15.9530 C.3          1 NAI301   0.0000
    34 O2D        -19.5890    23.7120    16.7520 O.3          1 NAI301   0.0000
    35 C1D        -17.3720    22.8980    16.0310 C.3          1 NAI301   0.0000
    36 N1N        -16.8680    23.5060    14.7900 N.pl3        1 NAI301   0.0000
    37 C2N        -15.8430    22.9560    14.1200 C.2          1 NAI301   0.0000
    38 C3N        -15.3520    23.5180    12.9490 C.2          1 NAI301   0.0000
    39 C7N        -14.1860    22.8710    12.2580 C.2          1 NAI301   0.0000
    40 O7N        -13.1600    23.5340    11.9730 O.2          1 NAI301   0.0000
    41 N7N        -14.3070    21.5820    11.9950 N.am         1 NAI301   0.0000
    42 C4N        -15.9510    24.7560    12.3610 C.3          1 NAI301   0.0000
    43 C5N        -17.0440    25.2470    13.1800 C.2          1 NAI301   0.0000
    44 C6N        -17.4540    24.6080    14.3390 C.2          1 NAI301   0.0000
    45 H5B1       -15.9319    14.5566    16.1735 H            1 NAI301   0.0000
    46 H5B2       -14.9389    15.8321    15.9420 H            1 NAI301   0.0000
    47 H4B        -13.8124    13.6127    15.9974 H            1 NAI301   0.0000
    48 H3B        -13.0463    15.7554    14.6729 H            1 NAI301   0.0000
    49 H5         -11.0873    14.8347    14.5480 H            1 NAI301   0.0000
    50 H2B        -14.1053    15.2964    12.6905 H            1 NAI301   0.0000
    51 H7         -12.4927    15.0489    11.2792 H            1 NAI301   0.0000
    52 H1B        -13.3974    12.5127    12.8739 H            1 NAI301   0.0000
    53 H8A        -15.8947    15.1004    11.9745 H            1 NAI301   0.0000
    54 H6A1       -18.1645    10.9963     7.7890 H            1 NAI301   0.0000
    55 H6A2       -18.2676    12.6330     8.3463 H            1 NAI301   0.0000
    56 H2A        -14.9608     9.0262    10.2927 H            1 NAI301   0.0000
    57 H5D1       -18.2622    18.8855    15.1859 H            1 NAI301   0.0000
    58 H5D2       -18.3728    20.2510    14.2972 H            1 NAI301   0.0000
    59 H4D        -17.6904    20.0143    17.0746 H            1 NAI301   0.0000
    60 H3D        -19.8698    20.8959    15.8889 H            1 NAI301   0.0000
    61 H17        -18.8171    21.8489    18.3304 H            1 NAI301   0.0000
    62 H2D        -19.1827    22.8350    15.0006 H            1 NAI301   0.0000
    63 H19        -19.8137    24.5098    16.1925 H            1 NAI301   0.0000
    64 H1D        -17.1384    23.4873    16.8044 H            1 NAI301   0.0000
    65 H2N        -15.4224    22.1203    14.4732 H            1 NAI301   0.0000
    66 H7N1       -13.5648    21.0935    11.5362 H            1 NAI301   0.0000
    67 H7N2       -15.1408    21.0948    12.2547 H            1 NAI301   0.0000
    68 H4N1       -16.2962    24.5489    11.4456 H            1 NAI301   0.0000
    69 H4N2       -15.2460    25.4625    12.2994 H            1 NAI301   0.0000
    70 H5N        -17.5200    26.0795    12.8966 H            1 NAI301   0.0000
    71 H6N        -18.2200    24.9915    14.8549 H            1 NAI301   0.0000
@<TRIPOS>BOND
     1    1    2      ar
     2    1    3      ar
     3    1    4       1
     4    1   23       1
     5    4    5       1
     6    5    6       1
     7    6    7       1
     8    6    8       1
     9    7   12       1
    10    8    9       1
    11    8   10       1
    12   10   11       1
    13   10   12       1
    14   12   13       1
    15   13   14       1
    16   13   22       1
    17   14   15       2
    18   15   16       1
    19   16   17      ar
    20   16   22      ar
    21   17   18       1
    22   17   19      ar
    23   19   20      ar
    24   20   21      ar
    25   21   22      ar
    26   23   24       1
    27   24   25      ar
    28   24   26      ar
    29   24   27       1
    30   27   28       1
    31   28   29       1
    32   29   30       1
    33   29   31       1
    34   30   35       1
    35   31   32       1
    36   31   33       1
    37   33   34       1
    38   33   35       1
    39   35   36       1
    40   36   37       1
    41   36   44       1
    42   37   38       2
    43   38   39       1
    44   38   42       1
    45   39   40       2
    46   39   41      am
    47   42   43       1
    48   43   44       2
    49   44   71       1
    50    5   45       1
    51    5   46       1
    52    6   47       1
    53    8   48       1
    54    9   49       1
    55   10   50       1
    56   11   51       1
    57   12   52       1
    58   14   53       1
    59   18   54       1
    60   18   55       1
    61   20   56       1
    62   43   70       1
    63   28   57       1
    64   28   58       1
    65   29   59       1
    66   31   60       1
    67   32   61       1
    68   33   62       1
    69   34   63       1
    70   35   64       1
    71   37   65       1
    72   41   66       1
    73   41   67       1
    74   42   68       1
    75   42   69       1
@<TRIPOS>SUBSTRUCTURE
     1 NAI301      1 GROUP             4 B     NAI     0 **** NAI B 301
