@<TRIPOS>MOLECULE
4n6b_COA_1_ligand
   81    83     1     0     0
SMALL
NO_CHARGES


@<TRIPOS>ATOM
     1 N1A        -50.1310   -43.2000   -52.6460 N.ar         1 COA300   0.0000
     2 C2A        -51.4600   -43.3120   -52.7110 C.ar         1 COA300   0.0000
     3 N3A        -52.1550   -42.6440   -53.6540 N.ar         1 COA300   0.0000
     4 C4A        -51.5230   -41.8410   -54.5510 C.ar         1 COA300   0.0000
     5 C5A        -50.1300   -41.7240   -54.4870 C.ar         1 COA300   0.0000
     6 C6A        -49.4550   -42.4240   -53.5050 C.ar         1 COA300   0.0000
     7 N6A        -48.0060   -42.3210   -53.4060 N.pl3        1 COA300   0.0000
     8 N7A        -49.7560   -40.8820   -55.4740 N.2          1 COA300   1.0000
     9 C8A        -50.8380   -40.4770   -56.1480 C.2          1 COA300   0.0000
    10 N9A        -51.9320   -41.0310   -55.6230 N.pl3        1 COA300   0.0000
    11 C1B        -53.2230   -40.8330   -56.0830 C.3          1 COA300   0.0000
    12 C2B        -53.7120   -39.5450   -55.7010 C.3          1 COA300   0.0000
    13 O2B        -54.4510   -39.6230   -54.4800 O.3          1 COA300   0.0000
    14 C3B        -54.5990   -39.1690   -56.7600 C.3          1 COA300   0.0000
    15 O3B        -55.8580   -39.7820   -56.4950 O.3          1 COA300   0.0000
    16 P3B        -57.0310   -39.7140   -57.5240 P.3          1 COA300   0.0000
    17 O7A        -56.9380   -40.8740   -58.5020 O.co2        1 COA300   0.0000
    18 O8A        -56.9900   -38.4150   -58.2750 O.co2        1 COA300  -1.0000
    19 O9A        -58.3150   -39.8100   -56.7710 O.co2        1 COA300  -1.0000
    20 C4B        -54.0050   -39.7090   -57.9650 C.3          1 COA300   0.0000
    21 O4B        -53.2080   -40.8610   -57.5620 O.3          1 COA300   0.0000
    22 C5B        -53.1640   -38.6880   -58.6270 C.3          1 COA300   0.0000
    23 O5B        -51.8000   -39.0960   -58.5560 O.3          1 COA300   0.0000
    24 P1A        -50.6840   -38.4120   -59.4990 P.3          1 COA300   0.0000
    25 O1A        -49.9790   -37.3050   -58.7290 O.co2        1 COA300   0.0000
    26 O2A        -51.3260   -37.8350   -60.7230 O.co2        1 COA300  -1.0000
    27 O3A        -49.6730   -39.5240   -59.9220 O.3          1 COA300   0.0000
    28 P2A        -48.3520   -39.1490   -60.7150 P.3          1 COA300   0.0000
    29 O4A        -48.3170   -37.6310   -60.8700 O.co2        1 COA300   0.0000
    30 O5A        -48.3130   -39.8200   -62.0650 O.co2        1 COA300  -1.0000
    31 O6A        -47.0970   -39.6310   -59.8560 O.3          1 COA300   0.0000
    32 CBP        -46.3870   -40.4250   -57.6900 C.3          1 COA300   0.0000
    33 CCP        -47.1140   -39.3440   -58.4700 C.3          1 COA300   0.0000
    34 CDP        -47.3490   -41.6460   -57.5680 C.3          1 COA300   0.0000
    35 CEP        -45.1190   -40.8480   -58.4220 C.3          1 COA300   0.0000
    36 CAP        -46.1060   -39.8150   -56.3180 C.3          1 COA300   0.0000
    37 OAP        -47.3060   -39.6700   -55.7080 O.3          1 COA300   0.0000
    38 C9P        -45.2210   -40.6300   -55.3930 C.2          1 COA300   0.0000
    39 O9P        -45.6550   -41.6580   -54.9040 O.2          1 COA300   0.0000
    40 N8P        -43.8580   -40.1680   -55.0690 N.am         1 COA300   0.0000
    41 C7P        -42.9910   -40.9280   -54.1690 C.3          1 COA300   0.0000
    42 C6P        -41.6730   -40.2140   -53.9930 C.3          1 COA300   0.0000
    43 C5P        -41.2220   -40.1980   -52.5510 C.2          1 COA300   0.0000
    44 O5P        -41.7970   -40.8890   -51.7340 O.2          1 COA300   0.0000
    45 N4P        -40.0950   -39.3400   -52.1710 N.am         1 COA300   0.0000
    46 C3P        -39.5430   -39.2220   -50.8030 C.3          1 COA300   0.0000
    47 C2P        -38.3770   -38.2810   -50.8810 C.3          1 COA300   0.0000
    48 S1P        -37.3740   -38.2710   -49.4260 S.3          1 COA300   0.0000
    49 H2A        -51.9425   -43.8944   -52.0568 H            1 COA300   0.0000
    50 H6A1       -47.5010   -41.7424   -54.0464 H            1 COA300   0.0000
    51 H6A2       -47.5159   -42.8289   -52.6976 H            1 COA300   0.0000
    52 H8A        -50.8283   -39.8523   -56.9288 H            1 COA300   0.0000
    53 H1B        -53.8269   -41.5484   -55.7315 H            1 COA300   0.0000
    54 H2B        -52.9603   -38.8905   -55.6191 H            1 COA300   0.0000
    55 H7         -55.4145   -39.7966   -54.6840 H            1 COA300   0.0000
    56 H3B        -54.6885   -38.1747   -56.8179 H            1 COA300   0.0000
    57 H4B        -54.7272   -40.0043   -58.5905 H            1 COA300   0.0000
    58 H5B1       -53.2759   -37.8090   -58.1635 H            1 COA300   0.0000
    59 H5B2       -53.4377   -38.5971   -59.5845 H            1 COA300   0.0000
    60 HCP1       -48.0623   -39.2943   -58.1565 H            1 COA300   0.0000
    61 HCP2       -46.6639   -38.4653   -58.3110 H            1 COA300   0.0000
    62 HDP1       -46.8966   -42.3771   -57.0572 H            1 COA300   0.0000
    63 HDP2       -48.1805   -41.3684   -57.0869 H            1 COA300   0.0000
    64 HDP3       -47.5868   -41.9756   -58.4817 H            1 COA300   0.0000
    65 HEP1       -44.6523   -41.5593   -57.8965 H            1 COA300   0.0000
    66 HEP2       -45.3586   -41.2039   -59.3253 H            1 COA300   0.0000
    67 HEP3       -44.5141   -40.0583   -58.5246 H            1 COA300   0.0000
    68 HAP        -45.6963   -38.9115   -56.4439 H            1 COA300   0.0000
    69 H21        -47.1889   -39.7523   -54.7183 H            1 COA300   0.0000
    70 H8P        -43.5200   -39.3179   -55.4729 H            1 COA300   0.0000
    71 H7P1       -42.8266   -41.8353   -54.5560 H            1 COA300   0.0000
    72 H7P2       -43.4381   -41.0211   -53.2794 H            1 COA300   0.0000
    73 H6P1       -41.7726   -39.2708   -54.3100 H            1 COA300   0.0000
    74 H6P2       -40.9788   -40.6788   -54.5426 H            1 COA300   0.0000
    75 H4P        -39.6671   -38.7933   -52.8908 H            1 COA300   0.0000
    76 H3P1       -39.2406   -40.1174   -50.4761 H            1 COA300   0.0000
    77 H3P2       -40.2375   -38.8578   -50.1825 H            1 COA300   0.0000
    78 H2P1       -38.7270   -37.3561   -51.0296 H            1 COA300   0.0000
    79 H2P2       -37.8057   -38.5497   -51.6565 H            1 COA300   0.0000
    80 H1P        -36.6195   -37.6257   -49.5457 H            1 COA300   0.0000
    81 H7A        -48.8157   -40.6042   -55.6706 H            1 COA300   0.0000
@<TRIPOS>BOND
     1    1    2      ar
     2    1    6      ar
     3    2    3      ar
     4    3    4      ar
     5    4    5      ar
     6    4   10       1
     7    5    6      ar
     8    5    8       1
     9    6    7       1
    10    8    9       2
    11    9   10       1
    12   10   11       1
    13   11   12       1
    14   11   21       1
    15   12   13       1
    16   12   14       1
    17   14   15       1
    18   14   20       1
    19   15   16       1
    20   16   17      ar
    21   16   18      ar
    22   16   19      ar
    23   20   21       1
    24   20   22       1
    25   22   23       1
    26   23   24       1
    27   24   25      ar
    28   24   26      ar
    29   24   27       1
    30   27   28       1
    31   28   29      ar
    32   28   30      ar
    33   28   31       1
    34   31   33       1
    35   32   33       1
    36   32   34       1
    37   32   35       1
    38   32   36       1
    39   36   37       1
    40   36   38       1
    41   38   39       2
    42   38   40      am
    43   40   41       1
    44   41   42       1
    45   42   43       1
    46   43   44       2
    47   43   45      am
    48   45   46       1
    49   46   47       1
    50   47   48       1
    51    2   49       1
    52    7   50       1
    53    7   51       1
    54    9   52       1
    55   11   53       1
    56   12   54       1
    57   13   55       1
    58   14   56       1
    59   48   80       1
    60   47   79       1
    61   20   57       1
    62   22   58       1
    63   22   59       1
    64   47   78       1
    65   46   77       1
    66   33   60       1
    67   33   61       1
    68   34   62       1
    69   34   63       1
    70   34   64       1
    71   35   65       1
    72   35   66       1
    73   35   67       1
    74   36   68       1
    75   37   69       1
    76   40   70       1
    77   41   71       1
    78   41   72       1
    79   42   73       1
    80   42   74       1
    81   45   75       1
    82   46   76       1
    83    8   81       1
@<TRIPOS>SUBSTRUCTURE
     1 COA300      1 GROUP             4 A     COA     0 **** COA A 300
