@<TRIPOS>MOLECULE
2vdm_AGG_1_ligand
   66    67     1     0     0
SMALL
NO_CHARGES


@<TRIPOS>ATOM
     1 C1          92.7800    39.4850    78.0750 C.3          1 AGG1462   0.0000
     2 C2          94.1740    39.1050    77.5540 C.3          1 AGG1462   0.0000
     3 C3          95.2540    39.9700    78.2160 C.3          1 AGG1462   0.0000
     4 C4          95.8070    39.3130    79.4960 C.3          1 AGG1462   0.0000
     5 S1          95.5720    40.2890    81.0320 S.o2         1 AGG1462   0.0000
     6 O1          95.6570    41.7460    80.7210 O.2          1 AGG1462   0.0000
     7 O2          94.2200    40.0060    81.6100 O.2          1 AGG1462   0.0000
     8 N           96.7470    39.9290    82.1100 N.3          1 AGG1462   0.0000
     9 CA          96.3700    38.8420    83.0580 C.3          1 AGG1462   0.0000
    10 CB          96.9280    37.4930    82.6090 C.3          1 AGG1462   0.0000
    11 CG          95.9760    36.7470    81.6830 C.ar         1 AGG1462   0.0000
    12 CD1         96.4670    36.1440    80.5310 C.ar         1 AGG1462   0.0000
    13 CE1         95.6120    35.4570    79.6770 C.ar         1 AGG1462   0.0000
    14 CZ          94.2530    35.3740    79.9700 C.ar         1 AGG1462   0.0000
    15 OH          93.3930    34.7060    79.1510 O.3          1 AGG1462   0.0000
    16 CE2         93.7630    35.9750    81.1250 C.ar         1 AGG1462   0.0000
    17 CD2         94.6210    36.6630    81.9810 C.ar         1 AGG1462   0.0000
    18 C           96.9010    39.1150    84.4820 C.2          1 AGG1462   0.0000
    19 O           97.9440    39.7960    84.6070 O.co2        1 AGG1462   0.0000
    20 OXT         96.2510    38.6230    85.4280 O.co2        1 AGG1462  -1.0000
    21 C11         93.8950    34.5440    77.8160 C.3          1 AGG1462   0.0000
    22 C12         92.8910    33.6650    77.0750 C.3          1 AGG1462   0.0000
    23 C13         93.3470    33.3880    75.6430 C.3          1 AGG1462   0.0000
    24 C14         93.2560    31.8910    75.3200 C.3          1 AGG1462   0.0000
    25 C15         93.6560    31.6160    73.8720 C.3          1 AGG1462   0.0000
    26 C16         94.1110    30.1570    73.7360 C.3          1 AGG1462   0.0000
    27 C17         94.1570    29.7050    72.2790 C.3          1 AGG1462   0.0000
    28 N18         92.8260    29.9230    71.7040 N.4          1 AGG1462   1.0000
    29 C18         92.6320    31.3690    71.5700 C.3          1 AGG1462   0.0000
    30 C19         92.4660    31.9570    72.9660 C.3          1 AGG1462   0.0000
    31 H1          92.0909    38.9112    77.6325 H            1 AGG1462   0.0000
    32 H2          92.7445    39.3454    79.0646 H            1 AGG1462   0.0000
    33 H3          92.5970    40.4459    77.8672 H            1 AGG1462   0.0000
    34 H4          94.2035    39.2435    76.5641 H            1 AGG1462   0.0000
    35 H5          94.3511    38.1429    77.7614 H            1 AGG1462   0.0000
    36 H6          94.8583    40.8574    78.4524 H            1 AGG1462   0.0000
    37 H7          96.0051    40.1017    77.5691 H            1 AGG1462   0.0000
    38 H8          96.7878    39.1646    79.3697 H            1 AGG1462   0.0000
    39 H9          95.3492    38.4320    79.6152 H            1 AGG1462   0.0000
    40 H10         97.5617    39.6415    81.6063 H            1 AGG1462   0.0000
    41 HA          95.3726    38.7801    83.0943 H            1 AGG1462   0.0000
    42 HB1         97.0954    36.9298    83.4182 H            1 AGG1462   0.0000
    43 HB2         97.7900    37.6472    82.1261 H            1 AGG1462   0.0000
    44 HD1         97.4415    36.2048    80.3151 H            1 AGG1462   0.0000
    45 HE1         95.9729    35.0222    78.8519 H            1 AGG1462   0.0000
    46 HE2         92.7889    35.9129    81.3424 H            1 AGG1462   0.0000
    47 HD2         94.2624    37.0955    82.8082 H            1 AGG1462   0.0000
    48 H18         94.7917    34.1017    77.8360 H            1 AGG1462   0.0000
    49 H19         93.9722    35.4338    77.3662 H            1 AGG1462   0.0000
    50 H20         92.0061    34.1302    77.0509 H            1 AGG1462   0.0000
    51 H21         92.7977    32.7961    77.5611 H            1 AGG1462   0.0000
    52 H22         94.2948    33.6889    75.5371 H            1 AGG1462   0.0000
    53 H23         92.7633    33.8958    75.0094 H            1 AGG1462   0.0000
    54 H24         92.3156    31.5825    75.4633 H            1 AGG1462   0.0000
    55 H25         93.8685    31.3875    75.9293 H            1 AGG1462   0.0000
    56 H26         94.4215    32.2133    73.6328 H            1 AGG1462   0.0000
    57 H27         93.4721    29.5718    74.2354 H            1 AGG1462   0.0000
    58 H28         95.0251    30.0659    74.1312 H            1 AGG1462   0.0000
    59 H29         94.3945    28.7348    72.2305 H            1 AGG1462   0.0000
    60 H30         94.8368    30.2401    71.7774 H            1 AGG1462   0.0000
    61 H31         92.1269    29.5398    72.3077 H            1 AGG1462   0.0000
    62 H32         91.8132    31.5519    71.0258 H            1 AGG1462   0.0000
    63 H33         93.4277    31.7775    71.1228 H            1 AGG1462   0.0000
    64 H34         92.3901    32.9513    72.8916 H            1 AGG1462   0.0000
    65 H35         91.6313    31.5887    73.3754 H            1 AGG1462   0.0000
    66 H36         92.7668    29.4865    70.8062 H            1 AGG1462   0.0000
@<TRIPOS>BOND
     1    1    2       1
     2    2    3       1
     3    3    4       1
     4    4    5       1
     5    5    6       2
     6    5    7       2
     7    5    8       1
     8    8    9       1
     9    9   10       1
    10    9   18       1
    11   10   11       1
    12   11   12      ar
    13   11   17      ar
    14   12   13      ar
    15   13   14      ar
    16   14   15       1
    17   14   16      ar
    18   15   21       1
    19   16   17      ar
    20   18   19      ar
    21   18   20      ar
    22   21   22       1
    23   22   23       1
    24   23   24       1
    25   24   25       1
    26   25   26       1
    27   25   30       1
    28   26   27       1
    29   27   28       1
    30   28   29       1
    31   29   30       1
    32    1   31       1
    33    1   32       1
    34    1   33       1
    35    2   34       1
    36    2   35       1
    37    3   36       1
    38    3   37       1
    39    4   38       1
    40    4   39       1
    41    8   40       1
    42    9   41       1
    43   10   42       1
    44   10   43       1
    45   12   44       1
    46   13   45       1
    47   16   46       1
    48   17   47       1
    49   30   65       1
    50   21   48       1
    51   21   49       1
    52   22   50       1
    53   22   51       1
    54   23   52       1
    55   23   53       1
    56   24   54       1
    57   24   55       1
    58   25   56       1
    59   26   57       1
    60   26   58       1
    61   27   59       1
    62   27   60       1
    63   28   61       1
    64   29   62       1
    65   29   63       1
    66   30   64       1
    67   28   66       1
@<TRIPOS>SUBSTRUCTURE
     1 AGG1462     1 GROUP             4 B     AGG     0 **** AGG B1462
