@<TRIPOS>MOLECULE
4j71_1JX_1_ligand
   21    22     1     0     0
SMALL
NO_CHARGES


@<TRIPOS>ATOM
     1 O          -35.2490    30.2830    20.2310 O.2          1 1JX501   0.0000
     2 C          -35.8890    29.4100    19.6480 C.2          1 1JX501   0.0000
     3 NAG        -36.1060    29.5550    18.2680 N.am         1 1JX501   0.0000
     4 CAK        -36.8260    28.5910    17.5530 C.ar         1 1JX501   0.0000
     5 NAF        -36.8470    28.6170    16.2140 N.ar         1 1JX501   0.0000
     6 CAD        -37.5700    27.6490    15.5070 C.ar         1 1JX501   0.0000
     7 CAC        -38.2690    26.6590    16.1870 C.ar         1 1JX501   0.0000
     8 CAE        -38.2440    26.6370    17.5740 C.ar         1 1JX501   0.0000
     9 CAJ        -37.5180    27.6100    18.2510 C.ar         1 1JX501   0.0000
    10 N          -37.4740    27.6160    19.6450 N.pl3        1 1JX501   0.0000
    11 CA         -36.3750    28.3060    20.3610 C.3          1 1JX501   0.0000
    12 CB         -36.8460    28.7670    21.7430 C.3          1 1JX501   0.0000
    13 HAG        -35.7423    30.3553    17.7913 H            1 1JX501   0.0000
    14 HAD        -37.5835    27.6700    14.5073 H            1 1JX501   0.0000
    15 HAC        -38.7856    25.9683    15.6809 H            1 1JX501   0.0000
    16 HAE        -38.7410    25.9315    18.0793 H            1 1JX501   0.0000
    17 H5         -38.1899    27.1509    20.1657 H            1 1JX501   0.0000
    18 HA         -35.6245    27.6569    20.4851 H            1 1JX501   0.0000
    19 HB1        -37.1938    27.9820    22.2556 H            1 1JX501   0.0000
    20 HB2        -36.0786    29.1747    22.2378 H            1 1JX501   0.0000
    21 HB3        -37.5732    29.4454    21.6382 H            1 1JX501   0.0000
@<TRIPOS>BOND
     1    1    2       2
     2    2    3      am
     3    2   11       1
     4    3    4       1
     5    4    5      ar
     6    4    9      ar
     7    5    6      ar
     8    6    7      ar
     9    7    8      ar
    10    8    9      ar
    11    9   10       1
    12   10   11       1
    13   11   12       1
    14    3   13       1
    15    6   14       1
    16    7   15       1
    17    8   16       1
    18   10   17       1
    19   11   18       1
    20   12   19       1
    21   12   20       1
    22   12   21       1
@<TRIPOS>SUBSTRUCTURE
     1 1JX501      1 GROUP             4 A     1JX     0 **** 1JX A 501
