@<TRIPOS>MOLECULE
4zgs_NAD_1_ligand
   70    74     1     0     0
SMALL
NO_CHARGES


@<TRIPOS>ATOM
     1 PA          42.0110    14.6960    51.0120 P.3          1 NAD1000   0.0000
     2 O1A         42.2780    15.7860    51.9780 O.co2        1 NAD1000   0.0000
     3 O2A         43.3190    13.9950    51.0530 O.co2        1 NAD1000  -1.0000
     4 O5B         41.6700    15.2560    49.5490 O.3          1 NAD1000   0.0000
     5 C5B         41.1990    16.5860    49.3380 C.3          1 NAD1000   0.0000
     6 C4B         42.1550    17.3680    48.4940 C.3          1 NAD1000   0.0000
     7 O4B         41.4410    18.4560    47.7470 O.3          1 NAD1000   0.0000
     8 C3B         43.2080    18.0240    49.3120 C.3          1 NAD1000   0.0000
     9 O3B         44.5400    17.7110    48.8160 O.3          1 NAD1000   0.0000
    10 C2B         42.9910    19.4620    49.1990 C.3          1 NAD1000   0.0000
    11 O2B         44.2640    20.1610    49.2410 O.3          1 NAD1000   0.0000
    12 C1B         42.3310    19.6530    47.8890 C.3          1 NAD1000   0.0000
    13 N9A         41.6520    20.8790    47.7610 N.pl3        1 NAD1000   0.0000
    14 C8A         41.3300    21.8000    48.8010 C.2          1 NAD1000   0.0000
    15 N7A         40.6640    22.9140    48.2630 N.2          1 NAD1000   0.0000
    16 C5A         40.5770    22.7000    46.9040 C.ar         1 NAD1000   0.0000
    17 C6A         40.0400    23.4060    45.7830 C.ar         1 NAD1000   0.0000
    18 N6A         39.4030    24.6610    45.9450 N.pl3        1 NAD1000   0.0000
    19 N1A         40.1430    22.8900    44.6420 N.ar         1 NAD1000   0.0000
    20 C2A         40.6620    21.8240    44.3480 C.ar         1 NAD1000   0.0000
    21 N3A         41.1990    21.0510    45.2270 N.ar         1 NAD1000   0.0000
    22 C4A         41.2110    21.4080    46.5850 C.ar         1 NAD1000   0.0000
    23 O3          40.8460    13.7210    51.5270 O.3          1 NAD1000   0.0000
    24 PN          40.3410    12.4190    50.7460 P.3          1 NAD1000   0.0000
    25 O1N         40.5960    11.1710    51.5060 O.co2        1 NAD1000   0.0000
    26 O2N         41.1230    12.1980    49.5060 O.co2        1 NAD1000  -1.0000
    27 O5D         38.7910    12.5770    50.3940 O.3          1 NAD1000   0.0000
    28 C5D         37.8130    12.9220    51.3810 C.3          1 NAD1000   0.0000
    29 C4D         36.5430    13.0940    50.6350 C.3          1 NAD1000   0.0000
    30 O4D         35.9890    11.7770    50.2480 O.3          1 NAD1000   0.0000
    31 C3D         35.4820    13.7210    51.4330 C.3          1 NAD1000   0.0000
    32 O3D         35.6580    15.1600    51.5070 O.3          1 NAD1000   0.0000
    33 C2D         34.2840    13.3680    50.6750 C.3          1 NAD1000   0.0000
    34 O2D         34.0860    14.3540    49.6320 O.3          1 NAD1000   0.0000
    35 C1D         34.5450    12.0390    50.0660 C.3          1 NAD1000   0.0000
    36 N1N         33.7570    11.0420    50.6770 N.ar         1 NAD1000   1.0000
    37 C2N         33.0380    10.1210    49.8790 C.ar         1 NAD1000   0.0000
    38 C3N         32.2440     9.1430    50.4760 C.ar         1 NAD1000   0.0000
    39 C7N         31.4660     8.1540    49.6120 C.2          1 NAD1000   0.0000
    40 O7N         31.2855     7.0124    49.9969 O.2          1 NAD1000   0.0000
    41 N7N         30.9274     8.5560    48.3626 N.am         1 NAD1000   0.0000
    42 C4N         32.1590     9.0740    51.8790 C.ar         1 NAD1000   0.0000
    43 C5N         32.8700     9.9920    52.6780 C.ar         1 NAD1000   0.0000
    44 C6N         33.6640    10.9670    52.0840 C.ar         1 NAD1000   0.0000
    45 H5B1        41.0971    17.0407    50.2228 H            1 NAD1000   0.0000
    46 H5B2        40.3118    16.5492    48.8780 H            1 NAD1000   0.0000
    47 H4B         42.5891    16.7519    47.8368 H            1 NAD1000   0.0000
    48 H3B         43.1242    17.7403    50.2672 H            1 NAD1000   0.0000
    49 H5          44.6277    18.0297    47.8722 H            1 NAD1000   0.0000
    50 H2B         42.3960    19.7815    49.9365 H            1 NAD1000   0.0000
    51 H7          44.6220    20.2576    48.3123 H            1 NAD1000   0.0000
    52 H1B         43.0314    19.6079    47.1767 H            1 NAD1000   0.0000
    53 H8A         41.5460    21.6720    49.7690 H            1 NAD1000   0.0000
    54 H6A1        39.0332    25.1405    45.1492 H            1 NAD1000   0.0000
    55 H6A2        39.3231    25.0674    46.8552 H            1 NAD1000   0.0000
    56 H2A         40.6702    21.5410    43.3889 H            1 NAD1000   0.0000
    57 H5D1        38.0660    13.7728    51.8416 H            1 NAD1000   0.0000
    58 H5D2        37.7252    12.1903    52.0570 H            1 NAD1000   0.0000
    59 H4D         36.7097    13.6400    49.8140 H            1 NAD1000   0.0000
    60 H3D         35.4488    13.3227    52.3497 H            1 NAD1000   0.0000
    61 H17         36.6320    15.3799    51.4526 H            1 NAD1000   0.0000
    62 H2D         33.4864    13.3282    51.2769 H            1 NAD1000   0.0000
    63 H19         34.4473    15.2361    49.9343 H            1 NAD1000   0.0000
    64 H1D         34.3351    12.0750    49.0889 H            1 NAD1000   0.0000
    65 H2N         33.0997    10.1719    48.8822 H            1 NAD1000   0.0000
    66 H7N1        30.3952     7.9093    47.8162 H            1 NAD1000   0.0000
    67 H7N2        31.0800     9.4860    48.0283 H            1 NAD1000   0.0000
    68 H4N         31.5926     8.3717    52.3103 H            1 NAD1000   0.0000
    69 H5N         32.8033     9.9421    53.6745 H            1 NAD1000   0.0000
    70 H6N         34.1693    11.6153    52.6535 H            1 NAD1000   0.0000
@<TRIPOS>BOND
     1    1    2      ar
     2    1    3      ar
     3    1    4       1
     4    1   23       1
     5    4    5       1
     6    5    6       1
     7    6    7       1
     8    6    8       1
     9    7   12       1
    10    8    9       1
    11    8   10       1
    12   10   11       1
    13   10   12       1
    14   12   13       1
    15   13   14       1
    16   13   22       1
    17   14   15       2
    18   15   16       1
    19   16   17      ar
    20   16   22      ar
    21   17   18       1
    22   17   19      ar
    23   19   20      ar
    24   20   21      ar
    25   21   22      ar
    26   23   24       1
    27   24   25      ar
    28   24   26      ar
    29   24   27       1
    30   27   28       1
    31   28   29       1
    32   29   30       1
    33   29   31       1
    34   30   35       1
    35   31   32       1
    36   31   33       1
    37   33   34       1
    38   33   35       1
    39   35   36       1
    40   36   37      ar
    41   36   44      ar
    42   37   38      ar
    43   38   39       1
    44   38   42      ar
    45   39   40       2
    46   39   41      am
    47   42   43      ar
    48   43   44      ar
    49   44   70       1
    50    5   45       1
    51    5   46       1
    52    6   47       1
    53    8   48       1
    54    9   49       1
    55   10   50       1
    56   11   51       1
    57   12   52       1
    58   14   53       1
    59   18   54       1
    60   18   55       1
    61   20   56       1
    62   43   69       1
    63   28   57       1
    64   28   58       1
    65   29   59       1
    66   31   60       1
    67   32   61       1
    68   33   62       1
    69   34   63       1
    70   35   64       1
    71   37   65       1
    72   41   66       1
    73   41   67       1
    74   42   68       1
@<TRIPOS>SUBSTRUCTURE
     1 NAD1000     1 GROUP             4 A     NAD     0 **** NAD A1000
