@<TRIPOS>MOLECULE
2xbm_SAH_4_ligand
   44    46     1     0     0
SMALL
NO_CHARGES


@<TRIPOS>ATOM
     1 N          -47.5140   -22.4560    18.0810 N.4          1 SAH266   1.0000
     2 CA         -47.1400   -21.3770    17.1730 C.3          1 SAH266   0.0000
     3 CB         -47.2530   -21.7520    16.2240 C.2          1 SAH266   0.0000
     4 CG         -46.3830   -22.3340    15.3040 C.2          1 SAH266   0.0000
     5 SD         -46.5900   -23.2230    13.8560 S.3          1 SAH266   0.0000
     6 C          -47.6370   -20.0620    17.6480 C.2          1 SAH266   0.0000
     7 O          -48.3150   -19.7480    18.6120 O.co2        1 SAH266   0.0000
     8 OXT        -47.3400   -19.0690    17.1230 O.co2        1 SAH266  -1.0000
     9 C5'        -45.2910   -24.5750    13.8300 C.3          1 SAH266   0.0000
    10 C4'        -43.9850   -24.1430    13.2720 C.3          1 SAH266   0.0000
    11 O4'        -43.4090   -25.3440    13.0380 O.3          1 SAH266   0.0000
    12 C3'        -44.1350   -23.6200    11.8920 C.3          1 SAH266   0.0000
    13 O3'        -43.8530   -22.2580    11.9480 O.3          1 SAH266   0.0000
    14 C2'        -43.0070   -24.2650    11.1530 C.3          1 SAH266   0.0000
    15 O2'        -42.1610   -23.2070    10.7960 O.3          1 SAH266   0.0000
    16 C1'        -42.3520   -25.0660    12.2370 C.3          1 SAH266   0.0000
    17 N9         -41.8720   -26.3290    11.8080 N.pl3        1 SAH266   0.0000
    18 C8         -42.3590   -27.1310    10.9100 C.2          1 SAH266   0.0000
    19 N7         -41.5970   -28.1920    10.8290 N.2          1 SAH266   0.0000
    20 C5         -40.6340   -28.0520    11.6790 C.ar         1 SAH266   0.0000
    21 C6         -39.5730   -28.8030    12.0400 C.ar         1 SAH266   0.0000
    22 N6         -39.3280   -29.9380    11.4990 N.pl3        1 SAH266   0.0000
    23 N1         -38.7660   -28.3790    12.9560 N.ar         1 SAH266   0.0000
    24 C2         -38.9740   -27.2460    13.5300 C.ar         1 SAH266   0.0000
    25 N3         -39.9810   -26.5030    13.2010 N.ar         1 SAH266   0.0000
    26 C4         -40.8200   -26.8790    12.2890 C.ar         1 SAH266   0.0000
    27 H1         -46.7366   -22.6824    18.6678 H            1 SAH266   0.0000
    28 H2         -48.2847   -22.1633    18.6470 H            1 SAH266   0.0000
    29 HA         -46.1485   -21.3086    17.2833 H            1 SAH266   0.0000
    30 HB         -48.1918   -21.6851    15.8862 H            1 SAH266   0.0000
    31 HG         -45.4211   -22.2027    15.5438 H            1 SAH266   0.0000
    32 H5'1       -45.6356   -25.3322    13.2751 H            1 SAH266   0.0000
    33 H5'2       -45.1443   -24.8889    14.7681 H            1 SAH266   0.0000
    34 H4'        -43.4579   -23.5485    13.8792 H            1 SAH266   0.0000
    35 H3'        -45.0299   -23.8189    11.4925 H            1 SAH266   0.0000
    36 H10        -43.9422   -21.8613    11.0344 H            1 SAH266   0.0000
    37 H2'        -43.3049   -24.8171    10.3743 H            1 SAH266   0.0000
    38 H12        -41.8441   -22.7404    11.6217 H            1 SAH266   0.0000
    39 H1'        -41.6479   -24.5415    12.7158 H            1 SAH266   0.0000
    40 H14        -43.1829   -26.9647    10.3681 H            1 SAH266   0.0000
    41 H15        -38.5325   -30.4694    11.7902 H            1 SAH266   0.0000
    42 H16        -39.9322   -30.2926    10.7855 H            1 SAH266   0.0000
    43 H17        -38.3461   -26.9343    14.2431 H            1 SAH266   0.0000
    44 H18        -47.7771   -23.2619    17.5506 H            1 SAH266   0.0000
@<TRIPOS>BOND
     1    1    2       1
     2    2    3       1
     3    2    6       1
     4    3    4       2
     5    4    5       1
     6    5    9       1
     7    6    7      ar
     8    6    8      ar
     9    9   10       1
    10   10   11       1
    11   10   12       1
    12   11   16       1
    13   12   13       1
    14   12   14       1
    15   14   15       1
    16   14   16       1
    17   16   17       1
    18   17   18       1
    19   17   26       1
    20   18   19       2
    21   19   20       1
    22   20   21      ar
    23   20   26      ar
    24   21   22       1
    25   21   23      ar
    26   23   24      ar
    27   24   25      ar
    28   25   26      ar
    29    1   27       1
    30    1   28       1
    31    2   29       1
    32    3   30       1
    33    4   31       1
    34    1   44       1
    35    9   32       1
    36    9   33       1
    37   10   34       1
    38   12   35       1
    39   13   36       1
    40   14   37       1
    41   15   38       1
    42   16   39       1
    43   18   40       1
    44   22   41       1
    45   22   42       1
    46   24   43       1
@<TRIPOS>SUBSTRUCTURE
     1 SAH266      1 GROUP             4 D     SAH     0 **** SAH D 266
