@<TRIPOS>MOLECULE
4qrc_0LI_1_ligand
   67    71     1     0     0
SMALL
NO_CHARGES


@<TRIPOS>ATOM
     1 N1          48.4550     2.7390    83.3570 N.2          1 0LI802   0.0000
     2 N3          52.0120     0.6670    67.7030 N.3          1 0LI802   0.0000
     3 C4          49.9250    -0.1510    79.8030 C.1          1 0LI802   0.0000
     4 C5          50.6770    -0.8530    78.7160 C.ar         1 0LI802   0.0000
     5 C6          51.3080    -2.0950    78.8750 C.ar         1 0LI802   0.0000
     6 C7          51.9840    -2.6960    77.8180 C.ar         1 0LI802   0.0000
     7 C8          52.0390    -2.0720    76.5930 C.ar         1 0LI802   0.0000
     8 C10         50.7320    -0.2110    77.4950 C.ar         1 0LI802   0.0000
     9 C13         52.2830     0.0230    72.6870 C.ar         1 0LI802   0.0000
    10 C15         52.2980    -0.2180    70.2630 C.ar         1 0LI802   0.0000
    11 C17         52.4260     1.9780    71.2320 C.ar         1 0LI802   0.0000
    12 C20         52.4490     1.6360    68.6660 C.3          1 0LI802   0.0000
    13 C21         50.5770     0.7500    67.4830 C.3          1 0LI802   0.0000
    14 C22         50.0940    -0.3010    66.5570 C.3          1 0LI802   0.0000
    15 C24         52.8820     0.5840    66.5270 C.3          1 0LI802   0.0000
    16 C81         45.9940     2.5720    83.6190 C.2          1 0LI802   0.0000
    17 C82         44.8910     1.9260    83.0960 C.2          1 0LI802   0.0000
    18 C83         45.0280     1.0340    82.0710 C.2          1 0LI802   0.0000
    19 N81         46.2310     0.7630    81.5450 N.2          1 0LI802   0.0000
    20 N82         47.3560     1.3830    82.0340 N.pl3        1 0LI802   0.0000
    21 C84         47.2490     2.2870    83.0730 C.2          1 0LI802   0.0000
    22 C1          49.3510     2.1840    82.5590 C.2          1 0LI802   0.0000
    23 C2          48.6820     1.3180    81.7040 C.2          1 0LI802   0.0000
    24 C3          49.3380     0.4810    80.6560 C.1          1 0LI802   0.0000
    25 C9          51.4190    -0.8480    76.4610 C.ar         1 0LI802   0.0000
    26 C11         51.2680    -2.8040    80.1940 C.3          1 0LI802   0.0000
    27 C12         51.4320    -0.0870    75.1730 C.2          1 0LI802   0.0000
    28 O1          50.7690     0.9430    75.2710 O.2          1 0LI802   0.0000
    29 N2          52.2010    -0.6070    74.0160 N.am         1 0LI802   0.0000
    30 C14         52.2440    -0.7680    71.5430 C.ar         1 0LI802   0.0000
    31 C16         52.3840     1.1350    70.0990 C.ar         1 0LI802   0.0000
    32 C18         52.3690     1.4290    72.5340 C.ar         1 0LI802   0.0000
    33 C19         52.5130     3.4640    71.0430 C.3          1 0LI802   0.0000
    34 F1          53.7000     3.7550    70.5200 F            1 0LI802   0.0000
    35 F2          52.3240     4.0730    72.2210 F            1 0LI802   0.0000
    36 F3          51.5790     3.8680    70.2070 F            1 0LI802   0.0000
    37 C23         52.2390    -0.1640    65.3700 C.3          1 0LI802   0.0000
    38 C25         50.1580    -0.5850    64.1430 C.3          1 0LI802   0.0000
    39 N4          50.7780    -0.0840    65.3240 N.4          1 0LI802   1.0000
    40 H1          52.4299    -3.5815    77.9486 H            1 0LI802   0.0000
    41 H2          52.5147    -2.4940    75.8212 H            1 0LI802   0.0000
    42 H3          50.2955     0.6780    77.3567 H            1 0LI802   0.0000
    43 H4          52.2737    -0.8164    69.4622 H            1 0LI802   0.0000
    44 H5          51.8678     2.4459    68.5868 H            1 0LI802   0.0000
    45 H6          53.3956     1.8835    68.4594 H            1 0LI802   0.0000
    46 H7          50.3615     1.6459    67.0946 H            1 0LI802   0.0000
    47 H8          50.1095     0.6461    68.3609 H            1 0LI802   0.0000
    48 H9          49.1060    -0.2204    66.4250 H            1 0LI802   0.0000
    49 H10         50.3091    -1.2082    66.9186 H            1 0LI802   0.0000
    50 H11         53.7239     0.1102    66.7852 H            1 0LI802   0.0000
    51 H12         53.1008     1.5120    66.2253 H            1 0LI802   0.0000
    52 H13         45.8974     3.2266    84.3688 H            1 0LI802   0.0000
    53 H14         43.9833     2.1132    83.4715 H            1 0LI802   0.0000
    54 H15         44.2175     0.5753    81.7067 H            1 0LI802   0.0000
    55 H16         50.3359     2.3571    82.5692 H            1 0LI802   0.0000
    56 H17         51.7662    -3.6682    80.1232 H            1 0LI802   0.0000
    57 H18         51.6936    -2.2303    80.8938 H            1 0LI802   0.0000
    58 H19         50.3176    -2.9868    80.4455 H            1 0LI802   0.0000
    59 H20         52.7075    -1.4588    74.1498 H            1 0LI802   0.0000
    60 H21         52.1752    -1.7607    71.6418 H            1 0LI802   0.0000
    61 H22         52.3891     2.0254    73.3364 H            1 0LI802   0.0000
    62 H23         52.4957    -1.1278    65.4415 H            1 0LI802   0.0000
    63 H24         52.5983     0.2142    64.5169 H            1 0LI802   0.0000
    64 H25         50.7296    -0.3722    63.3505 H            1 0LI802   0.0000
    65 H26         50.0487    -1.5761    64.2187 H            1 0LI802   0.0000
    66 H27         49.2606    -0.1583    64.0310 H            1 0LI802   0.0000
    67 H28         50.6458     0.9000    65.2046 H            1 0LI802   0.0000
@<TRIPOS>BOND
     1    1   21       2
     2    1   22       1
     3    2   12       1
     4    2   13       1
     5    2   15       1
     6    3    4       1
     7    3   24       3
     8    4    5      ar
     9    4    8      ar
    10    5    6      ar
    11    5   26       1
    12    6    7      ar
    13    7   25      ar
    14    8   25      ar
    15    9   29       1
    16    9   30      ar
    17    9   32      ar
    18   10   30      ar
    19   10   31      ar
    20   11   31      ar
    21   11   32      ar
    22   11   33       1
    23   12   31       1
    24   13   14       1
    25   14   39       1
    26   15   37       1
    27   16   17       2
    28   16   21       1
    29   17   18       1
    30   18   19       2
    31   19   20       1
    32   20   21       1
    33   20   23       1
    34   22   23       2
    35   23   24       1
    36   25   27       1
    37   27   28       2
    38   27   29      am
    39   33   34       1
    40   33   35       1
    41   33   36       1
    42   37   39       1
    43   38   39       1
    44    6   40       1
    45    7   41       1
    46    8   42       1
    47   10   43       1
    48   12   44       1
    49   12   45       1
    50   13   46       1
    51   13   47       1
    52   14   48       1
    53   14   49       1
    54   15   50       1
    55   15   51       1
    56   16   52       1
    57   17   53       1
    58   18   54       1
    59   22   55       1
    60   26   56       1
    61   26   57       1
    62   26   58       1
    63   29   59       1
    64   30   60       1
    65   32   61       1
    66   37   62       1
    67   37   63       1
    68   38   64       1
    69   38   65       1
    70   38   66       1
    71   39   67       1
@<TRIPOS>SUBSTRUCTURE
     1 0LI802      1 GROUP             4 A     0LI     0 **** 0LI A 802
