@<TRIPOS>MOLECULE
4ozt_P1A_1_ligand
   77    80     1     0     0
SMALL
NO_CHARGES


@<TRIPOS>ATOM
     1 C5          15.9860   -54.8900     4.7090 C.3          1 P1A601   0.0000
     2 C10         15.0240   -53.7190     4.6590 C.3          1 P1A601   0.0000
     3 C1          15.5550   -52.7170     5.6530 C.3          1 P1A601   0.0000
     4 C2          15.5920   -53.2480     7.0690 C.3          1 P1A601   0.0000
     5 C3          16.3930   -54.5470     7.1880 C.3          1 P1A601   0.0000
     6 C4          16.1370   -55.5260     6.0790 C.3          1 P1A601   0.0000
     7 C9          13.5510   -54.0960     4.8940 C.3          1 P1A601   0.0000
     8 C19         15.2390   -53.1170     3.3080 C.3          1 P1A601   0.0000
     9 C11         12.5760   -52.9310     4.8060 C.3          1 P1A601   0.0000
    10 C8          13.1530   -55.2190     3.9860 C.2          1 P1A601   0.0000
    11 C12         11.1130   -53.2930     4.6130 C.3          1 P1A601   0.0000
    12 C14         11.6870   -55.4370     3.6790 C.3          1 P1A601   0.0000
    13 C13         10.8920   -54.1870     3.3990 C.3          1 P1A601   0.0000
    14 C18         11.4660   -53.5550     2.1480 C.3          1 P1A601   0.0000
    15 C17          9.5000   -54.7950     3.1850 C.3          1 P1A601   0.0000
    16 O14         11.1760   -56.1040     4.8340 O.3          1 P1A601   0.0000
    17 C15         11.3010   -56.3360     2.5390 C.3          1 P1A601   0.0000
    18 C20          8.3170   -53.9770     2.5560 C.3          1 P1A601   0.0000
    19 C16          9.8050   -56.0850     2.4180 C.3          1 P1A601   0.0000
    20 C22          7.0360   -54.8150     2.3470 C.3          1 P1A601   0.0000
    21 O20          8.6300   -53.6260     1.2250 O.3          1 P1A601   0.0000
    22 C21          8.0030   -52.7020     3.3130 C.3          1 P1A601   0.0000
    23 C6          15.4610   -56.0080     3.8620 C.2          1 P1A601   0.0000
    24 C7          14.0280   -56.1090     3.5150 C.2          1 P1A601   0.0000
    25 O3          17.7920   -54.3530     7.1970 O.3          1 P1A601   0.0000
    26 O2          16.1130   -52.2210     7.9290 O.3          1 P1A601   0.0000
    27 O22          6.0590   -54.1590     1.5370 O.3          1 P1A601   0.0000
    28 C23          6.2750   -55.3210     3.5370 C.3          1 P1A601   0.0000
    29 C24          5.4160   -56.4120     2.9290 C.3          1 P1A601   0.0000
    30 C25          5.0180   -57.3690     4.0090 C.3          1 P1A601   0.0000
    31 C26          5.8350   -58.6610     4.0710 C.3          1 P1A601   0.0000
    32 C27          3.5220   -57.5160     3.9710 C.3          1 P1A601   0.0000
    33 O6          16.1920   -56.9360     3.5410 O.2          1 P1A601   0.0000
    34 H1          16.8823   -54.6037     4.3704 H            1 P1A601   0.0000
    35 H2          14.9691   -51.9069     5.6321 H            1 P1A601   0.0000
    36 H3          16.4841   -52.4634     5.3838 H            1 P1A601   0.0000
    37 H4          14.6518   -53.4387     7.3513 H            1 P1A601   0.0000
    38 H5          16.1387   -54.9863     8.0496 H            1 P1A601   0.0000
    39 H6          16.9033   -56.1675     6.0441 H            1 P1A601   0.0000
    40 H7          15.2951   -56.0235     6.2882 H            1 P1A601   0.0000
    41 H8          13.4916   -54.4486     5.8279 H            1 P1A601   0.0000
    42 H9          14.6343   -52.3287     3.1943 H            1 P1A601   0.0000
    43 H10         16.1907   -52.8222     3.2221 H            1 P1A601   0.0000
    44 H11         15.0359   -53.7973     2.6038 H            1 P1A601   0.0000
    45 H12         12.8531   -52.3590     4.0339 H            1 P1A601   0.0000
    46 H13         12.6510   -52.4058     5.6537 H            1 P1A601   0.0000
    47 H14         10.5870   -52.4512     4.4921 H            1 P1A601   0.0000
    48 H15         10.7906   -53.7733     5.4287 H            1 P1A601   0.0000
    49 H16         11.3087   -54.1594     1.3670 H            1 P1A601   0.0000
    50 H17         11.0196   -52.6753     1.9840 H            1 P1A601   0.0000
    51 H18         12.4487   -53.4130     2.2671 H            1 P1A601   0.0000
    52 H19          9.1843   -55.0820     4.0894 H            1 P1A601   0.0000
    53 H20         10.4182   -56.6994     4.5671 H            1 P1A601   0.0000
    54 H21         11.4910   -57.2941     2.7533 H            1 P1A601   0.0000
    55 H22         11.7798   -56.0810     1.6989 H            1 P1A601   0.0000
    56 H23          9.5517   -55.9801     1.4563 H            1 P1A601   0.0000
    57 H24          9.2960   -56.8486     2.8154 H            1 P1A601   0.0000
    58 H25          7.3182   -55.6264     1.8352 H            1 P1A601   0.0000
    59 H26          7.7877   -53.5649     0.6895 H            1 P1A601   0.0000
    60 H27          7.2446   -52.2273     2.8663 H            1 P1A601   0.0000
    61 H28          7.7479   -52.9269     4.2534 H            1 P1A601   0.0000
    62 H29          8.8093   -52.1106     3.3187 H            1 P1A601   0.0000
    63 H30         13.7119   -56.8501     2.9227 H            1 P1A601   0.0000
    64 H31         18.1056   -54.2314     8.1387 H            1 P1A601   0.0000
    65 H32         16.9456   -52.5500     8.3746 H            1 P1A601   0.0000
    66 H33          5.5237   -54.8427     1.0410 H            1 P1A601   0.0000
    67 H34          5.7124   -54.5996     3.9409 H            1 P1A601   0.0000
    68 H35          6.8923   -55.6906     4.2315 H            1 P1A601   0.0000
    69 H36          5.9358   -56.8963     2.2253 H            1 P1A601   0.0000
    70 H37          4.5981   -56.0074     2.5200 H            1 P1A601   0.0000
    71 H38          5.2135   -56.8933     4.8666 H            1 P1A601   0.0000
    72 H39          5.4979   -59.2330     4.8188 H            1 P1A601   0.0000
    73 H40          5.7437   -59.1549     3.2063 H            1 P1A601   0.0000
    74 H41          6.7974   -58.4396     4.2284 H            1 P1A601   0.0000
    75 H42          3.2313   -58.1524     4.6855 H            1 P1A601   0.0000
    76 H43          3.0955   -56.6247     4.1248 H            1 P1A601   0.0000
    77 H44          3.2443   -57.8687     3.0774 H            1 P1A601   0.0000
@<TRIPOS>BOND
     1    1    2       1
     2    1    6       1
     3    1   23       1
     4    2    3       1
     5    2    7       1
     6    2    8       1
     7    3    4       1
     8    4    5       1
     9    4   26       1
    10    5    6       1
    11    5   25       1
    12    7    9       1
    13    7   10       1
    14    9   11       1
    15   10   12       1
    16   10   24       2
    17   11   13       1
    18   12   13       1
    19   12   16       1
    20   12   17       1
    21   13   14       1
    22   13   15       1
    23   15   18       1
    24   15   19       1
    25   17   19       1
    26   18   20       1
    27   18   21       1
    28   18   22       1
    29   20   27       1
    30   20   28       1
    31   23   24       1
    32   23   33       2
    33   28   29       1
    34   29   30       1
    35   30   31       1
    36   30   32       1
    37    1   34       1
    38    3   35       1
    39    3   36       1
    40    4   37       1
    41    5   38       1
    42    6   39       1
    43    6   40       1
    44    7   41       1
    45    8   42       1
    46    8   43       1
    47    8   44       1
    48    9   45       1
    49    9   46       1
    50   11   47       1
    51   11   48       1
    52   14   49       1
    53   14   50       1
    54   14   51       1
    55   15   52       1
    56   16   53       1
    57   17   54       1
    58   17   55       1
    59   19   56       1
    60   19   57       1
    61   20   58       1
    62   21   59       1
    63   22   60       1
    64   22   61       1
    65   22   62       1
    66   24   63       1
    67   25   64       1
    68   26   65       1
    69   27   66       1
    70   28   67       1
    71   28   68       1
    72   29   69       1
    73   29   70       1
    74   30   71       1
    75   31   72       1
    76   31   73       1
    77   31   74       1
    78   32   75       1
    79   32   76       1
    80   32   77       1
@<TRIPOS>SUBSTRUCTURE
     1 P1A601      1 GROUP             4 E     P1A     0 **** P1A E 601
