@<TRIPOS>MOLECULE
3jyn_NDP_1_ligand
   73    77     1     0     0
SMALL
NO_CHARGES


@<TRIPOS>ATOM
     1 PA          26.5920    -1.3510    14.5330 P.3          1 NDP350   0.0000
     2 O1A         27.3710    -0.2990    13.8290 O.co2        1 NDP350   0.0000
     3 O2A         25.7700    -0.9530    15.7200 O.co2        1 NDP350  -1.0000
     4 O5B         27.5510    -2.5300    14.8950 O.3          1 NDP350   0.0000
     5 C5B         27.1990    -3.5750    15.7780 C.3          1 NDP350   0.0000
     6 C4B         27.4910    -3.1150    17.1660 C.3          1 NDP350   0.0000
     7 O4B         26.7350    -4.0050    17.9910 O.3          1 NDP350   0.0000
     8 C3B         28.9500    -3.1890    17.6360 C.3          1 NDP350   0.0000
     9 O3B         29.6140    -1.9480    17.2860 O.3          1 NDP350   0.0000
    10 C2B         28.7890    -3.5440    19.1120 C.3          1 NDP350   0.0000
    11 O2B         28.8640    -2.3590    19.8980 O.3          1 NDP350   0.0000
    12 C1B         27.3930    -4.3060    19.2080 C.3          1 NDP350   0.0000
    13 N9A         27.7200    -5.7260    19.5410 N.pl3        1 NDP350   0.0000
    14 C8A         27.3850    -6.3730    20.6680 C.2          1 NDP350   0.0000
    15 N7A         27.8460    -7.6330    20.6380 N.2          1 NDP350   0.0000
    16 C5A         28.4600    -7.7370    19.4820 C.ar         1 NDP350   0.0000
    17 C6A         29.1130    -8.8870    19.0010 C.ar         1 NDP350   0.0000
    18 N6A         29.1780   -10.0200    19.6900 N.pl3        1 NDP350   0.0000
    19 N1A         29.6860    -8.7760    17.7750 N.ar         1 NDP350   0.0000
    20 C2A         29.6500    -7.6200    17.0180 C.ar         1 NDP350   0.0000
    21 N3A         29.0190    -6.5210    17.4990 N.ar         1 NDP350   0.0000
    22 C4A         28.4120    -6.5690    18.7470 C.ar         1 NDP350   0.0000
    23 O3          25.6280    -1.9020    13.4050 O.3          1 NDP350   0.0000
    24 PN          24.4070    -1.3410    12.5870 P.3          1 NDP350   0.0000
    25 O1N         24.0580     0.0670    12.9890 O.co2        1 NDP350   0.0000
    26 O2N         24.7110    -1.5920    11.1160 O.co2        1 NDP350  -1.0000
    27 O5D         23.3200    -2.4420    13.1190 O.3          1 NDP350   0.0000
    28 C5D         22.8080    -2.5200    14.4450 C.3          1 NDP350   0.0000
    29 C4D         21.8830    -3.6860    14.5870 C.3          1 NDP350   0.0000
    30 O4D         20.6200    -3.4580    13.9300 O.3          1 NDP350   0.0000
    31 C3D         22.4310    -4.9920    13.9910 C.3          1 NDP350   0.0000
    32 O3D         22.1340    -6.1010    14.8550 O.3          1 NDP350   0.0000
    33 C2D         21.7120    -5.0260    12.6220 C.3          1 NDP350   0.0000
    34 O2D         21.7350    -6.2900    12.0070 O.3          1 NDP350   0.0000
    35 C1D         20.3350    -4.5660    12.9690 C.3          1 NDP350   0.0000
    36 N1N         19.4560    -3.8570    11.9990 N.ar         1 NDP350   1.0000
    37 C2N         18.1110    -4.2020    11.9930 C.ar         1 NDP350   0.0000
    38 C3N         17.2510    -3.5550    11.1070 C.ar         1 NDP350   0.0000
    39 C7N         15.7610    -3.9090    11.0800 C.2          1 NDP350   0.0000
    40 O7N         14.9970    -3.3550    10.3140 O.2          1 NDP350   0.0000
    41 N7N         15.3880    -4.8390    11.9390 N.am         1 NDP350   0.0000
    42 C4N         17.7270    -2.5660    10.2200 C.ar         1 NDP350   0.0000
    43 C5N         19.1130    -2.2170    10.2320 C.ar         1 NDP350   0.0000
    44 C6N         19.9740    -2.8710    11.1300 C.ar         1 NDP350   0.0000
    45 P2B         29.5210    -2.4190    21.4290 P.3          1 NDP350   0.0000
    46 O1X         29.2680    -1.0740    22.0020 O.co2        1 NDP350   0.0000
    47 O2X         28.7920    -3.4880    22.1240 O.co2        1 NDP350  -1.0000
    48 O3X         30.9410    -2.7540    21.1790 O.co2        1 NDP350  -1.0000
    49 H5B1        27.7367    -4.3920    15.5700 H            1 NDP350   0.0000
    50 H5B2        26.2255    -3.7845    15.6866 H            1 NDP350   0.0000
    51 H4B         27.1507    -2.1822    17.2851 H            1 NDP350   0.0000
    52 H3B         29.4054    -3.9456    17.1668 H            1 NDP350   0.0000
    53 H5          29.1981    -1.5691    16.4593 H            1 NDP350   0.0000
    54 H2B         29.5233    -4.1663    19.3832 H            1 NDP350   0.0000
    55 H1B         26.8659    -3.9140    19.9620 H            1 NDP350   0.0000
    56 H8A         26.8655    -5.9730    21.4231 H            1 NDP350   0.0000
    57 H6A1        29.6535   -10.8118    19.3066 H            1 NDP350   0.0000
    58 H6A2        28.7514   -10.0816    20.5923 H            1 NDP350   0.0000
    59 H2A         30.0877    -7.5946    16.1192 H            1 NDP350   0.0000
    60 H5D1        22.3100    -1.6785    14.6545 H            1 NDP350   0.0000
    61 H5D2        23.5691    -2.6250    15.0851 H            1 NDP350   0.0000
    62 H4D         21.7092    -3.8330    15.5607 H            1 NDP350   0.0000
    63 H3D         23.4192    -4.9183    13.8565 H            1 NDP350   0.0000
    64 H16         22.0992    -5.7849    15.8031 H            1 NDP350   0.0000
    65 H2D         22.1369    -4.3571    12.0121 H            1 NDP350   0.0000
    66 H18         22.5645    -6.7779    12.2788 H            1 NDP350   0.0000
    67 H1D         19.8290    -5.2986    13.4244 H            1 NDP350   0.0000
    68 H2N         17.7645    -4.9041    12.6150 H            1 NDP350   0.0000
    69 H7N1        14.4307    -5.1250    11.9819 H            1 NDP350   0.0000
    70 H7N2        16.0627    -5.2576    12.5469 H            1 NDP350   0.0000
    71 H4N         17.0990    -2.1125     9.5875 H            1 NDP350   0.0000
    72 H5N         19.4651    -1.5174     9.6103 H            1 NDP350   0.0000
    73 H6N         20.9466    -2.6399    11.1536 H            1 NDP350   0.0000
@<TRIPOS>BOND
     1    1    2      ar
     2    1    3      ar
     3    1    4       1
     4    1   23       1
     5    4    5       1
     6    5    6       1
     7    6    7       1
     8    6    8       1
     9    7   12       1
    10    8    9       1
    11    8   10       1
    12   10   11       1
    13   10   12       1
    14   11   45       1
    15   12   13       1
    16   13   14       1
    17   13   22       1
    18   14   15       2
    19   15   16       1
    20   16   17      ar
    21   16   22      ar
    22   17   18       1
    23   17   19      ar
    24   19   20      ar
    25   20   21      ar
    26   21   22      ar
    27   23   24       1
    28   24   25      ar
    29   24   26      ar
    30   24   27       1
    31   27   28       1
    32   28   29       1
    33   29   30       1
    34   29   31       1
    35   30   35       1
    36   31   32       1
    37   31   33       1
    38   33   34       1
    39   33   35       1
    40   35   36       1
    41   36   37      ar
    42   36   44      ar
    43   37   38      ar
    44   38   39       1
    45   38   42      ar
    46   39   40       2
    47   39   41      am
    48   42   43      ar
    49   43   44      ar
    50   45   46      ar
    51   45   47      ar
    52   45   48      ar
    53   43   72       1
    54    5   49       1
    55    5   50       1
    56    6   51       1
    57    8   52       1
    58    9   53       1
    59   10   54       1
    60   12   55       1
    61   14   56       1
    62   18   57       1
    63   18   58       1
    64   20   59       1
    65   44   73       1
    66   28   60       1
    67   28   61       1
    68   29   62       1
    69   31   63       1
    70   32   64       1
    71   33   65       1
    72   34   66       1
    73   35   67       1
    74   37   68       1
    75   41   69       1
    76   41   70       1
    77   42   71       1
@<TRIPOS>SUBSTRUCTURE
     1 NDP350      1 GROUP             4 A     NDP     0 **** NDP A 350
