@<TRIPOS>MOLECULE
1bxd_ANP_1_ligand
   44    46     1     0     0
SMALL
NO_CHARGES


@<TRIPOS>ATOM
     1 PG         -16.4020     7.7220   -11.3020 P.3          1 ANP451   0.0000
     2 O1G        -17.2260     8.7510   -10.6290 O.co2        1 ANP451   0.0000
     3 O2G        -16.9260     7.1580   -12.5660 O.co2        1 ANP451  -1.0000
     4 O3G        -16.3160     6.4860   -10.2760 O.co2        1 ANP451  -1.0000
     5 PB         -14.4770     8.0910   -13.0740 P.3          1 ANP451   0.0000
     6 O1B        -15.4870     8.7330   -13.9470 O.co2        1 ANP451   0.0000
     7 O2B        -13.0620     8.4900   -13.2690 O.co2        1 ANP451  -1.0000
     8 N3B        -14.8930     8.2650   -11.5170 N.3          1 ANP451   0.0000
     9 PA         -13.3530     5.4570   -13.6820 P.3          1 ANP451   0.0000
    10 O1A        -12.3060     6.1350   -14.4790 O.co2        1 ANP451   0.0000
    11 O2A        -13.0030     4.8310   -12.3890 O.co2        1 ANP451  -1.0000
    12 O3A        -14.5370     6.5130   -13.4180 O.3          1 ANP451   0.0000
    13 O5'        -14.0530     4.3340   -14.6100 O.3          1 ANP451   0.0000
    14 C5'        -14.8870     4.6950   -15.7170 C.3          1 ANP451   0.0000
    15 C4'        -14.3080     5.8450   -16.5200 C.3          1 ANP451   0.0000
    16 O4'        -13.1330     5.4000   -17.1880 O.3          1 ANP451   0.0000
    17 C3'        -15.2880     6.2980   -17.5940 C.3          1 ANP451   0.0000
    18 O3'        -15.4600     7.7230   -17.5760 O.3          1 ANP451   0.0000
    19 C2'        -14.6910     5.8470   -18.8780 C.3          1 ANP451   0.0000
    20 O2'        -14.2260     6.9690   -19.6400 O.3          1 ANP451   0.0000
    21 C1'        -13.5310     4.9550   -18.4720 C.3          1 ANP451   0.0000
    22 N9         -13.9140     3.5150   -18.3650 N.pl3        1 ANP451   0.0000
    23 C8         -15.0730     2.8720   -18.6830 C.2          1 ANP451   0.0000
    24 N7         -15.1770     1.6370   -18.3640 N.2          1 ANP451   0.0000
    25 C5         -13.9440     1.3900   -17.7510 C.ar         1 ANP451   0.0000
    26 C6         -13.3960     0.2490   -17.1660 C.ar         1 ANP451   0.0000
    27 N6         -14.0350    -0.9170   -17.1020 N.pl3        1 ANP451   0.0000
    28 N1         -12.1560     0.3510   -16.6540 N.ar         1 ANP451   0.0000
    29 C2         -11.4920     1.5140   -16.7090 C.ar         1 ANP451   0.0000
    30 N3         -11.9210     2.6600   -17.2420 N.ar         1 ANP451   0.0000
    31 C4         -13.1650     2.5270   -17.7480 C.ar         1 ANP451   0.0000
    32 H3B        -14.2644     7.7405   -10.9428 H            1 ANP451   0.0000
    33 H5'1       -15.7848     4.9650   -15.3692 H            1 ANP451   0.0000
    34 H5'2       -14.9869     3.9014   -16.3171 H            1 ANP451   0.0000
    35 H4'        -14.0880     6.6090   -15.9135 H            1 ANP451   0.0000
    36 H3'        -16.1711     5.8495   -17.4562 H            1 ANP451   0.0000
    37 H6         -16.4204     7.9407   -17.4023 H            1 ANP451   0.0000
    38 H2'        -15.3606     5.3244   -19.4058 H            1 ANP451   0.0000
    39 H8         -14.9932     7.5796   -19.8363 H            1 ANP451   0.0000
    40 H1'        -12.7761     5.0605   -19.1193 H            1 ANP451   0.0000
    41 H10        -15.8173     3.3494   -19.1500 H            1 ANP451   0.0000
    42 H11        -13.5955    -1.7050   -16.6708 H            1 ANP451   0.0000
    43 H12        -14.9545    -1.0049   -17.4851 H            1 ANP451   0.0000
    44 H13        -10.5763     1.5242   -16.3073 H            1 ANP451   0.0000
@<TRIPOS>BOND
     1    1    2      ar
     2    1    3      ar
     3    1    4      ar
     4    1    8       1
     5    5    6      ar
     6    5    7      ar
     7    5    8       1
     8    5   12       1
     9    9   10      ar
    10    9   11      ar
    11    9   12       1
    12    9   13       1
    13   13   14       1
    14   14   15       1
    15   15   16       1
    16   15   17       1
    17   16   21       1
    18   17   18       1
    19   17   19       1
    20   19   20       1
    21   19   21       1
    22   21   22       1
    23   22   23       1
    24   22   31       1
    25   23   24       2
    26   24   25       1
    27   25   26      ar
    28   25   31      ar
    29   26   27       1
    30   26   28      ar
    31   28   29      ar
    32   29   30      ar
    33   30   31      ar
    34   29   44       1
    35   27   43       1
    36   27   42       1
    37    8   32       1
    38   23   41       1
    39   14   33       1
    40   14   34       1
    41   15   35       1
    42   17   36       1
    43   18   37       1
    44   19   38       1
    45   20   39       1
    46   21   40       1
@<TRIPOS>SUBSTRUCTURE
     1 ANP451      1 GROUP             4 A     ANP     0 **** ANP A 451
