@<TRIPOS>MOLECULE
1c7o_PPG_7_ligand
   50    50     1     0     0
SMALL
NO_CHARGES


@<TRIPOS>ATOM
     1 N1          31.6800    63.1490   136.7370 N.ar         1 PPG7500   1.0000
     2 C2          31.1200    62.4150   137.8010 C.ar         1 PPG7500   0.0000
     3 C2A         30.3990    63.1930   138.8340 C.3          1 PPG7500   0.0000
     4 C3          31.3080    60.9940   137.7650 C.ar         1 PPG7500   0.0000
     5 O3          30.7750    60.3410   138.8340 O.3          1 PPG7500   0.0000
     6 C4          32.0080    60.3960   136.7150 C.ar         1 PPG7500   0.0000
     7 C4A         32.2530    58.8400   136.7950 C.3          1 PPG7500   0.0000
     8 C5          32.5720    61.2770   135.6330 C.ar         1 PPG7500   0.0000
     9 C6          32.3860    62.6210   135.6850 C.ar         1 PPG7500   0.0000
    10 C5A         33.4050    60.6470   134.4850 C.3          1 PPG7500   0.0000
    11 OP4         32.9540    61.1040   133.2240 O.3          1 PPG7500   0.0000
    12 P           33.7200    60.7120   131.8710 P.3          1 PPG7500   0.0000
    13 OP1         35.0520    61.3810   131.9650 O.co2        1 PPG7500   0.0000
    14 OP2         32.7510    61.2880   130.8040 O.co2        1 PPG7500  -1.0000
    15 OP3         33.7320    59.2450   131.7850 O.co2        1 PPG7500  -1.0000
    16 N4A         33.4850    58.4240   137.4210 N.pl3        1 PPG7500   0.0000
    17 CAI         33.7020    57.0710   137.7910 C.2          1 PPG7500   0.0000
    18 CBC         33.1950    56.6220   139.0750 C.2          1 PPG7500   0.0000
    19 O2B         33.2940    55.2870   139.4230 O.3          1 PPG7500   0.0000
    20 O3B         32.6360    57.4370   139.9000 O.3          1 PPG7500   0.0000
    21 CBI         34.3330    56.1460   136.9700 C.3          1 PPG7500   0.0000
    22 CGI         35.6240    56.3510   136.4420 C.3          1 PPG7500   0.0000
    23 OET         36.7960    55.9420   137.1590 O.3          1 PPG7500   0.0000
    24 CEI         37.8810    55.8540   136.2060 C.3          1 PPG7500   0.0000
    25 CFI         37.8040    54.5030   135.4960 C.3          1 PPG7500   0.0000
    26 NI          38.8220    54.4200   134.5060 N.4          1 PPG7500   1.0000
    27 H2A1        30.0470    62.5717   139.5340 H            1 PPG7500   0.0000
    28 H2A2        31.0255    63.8489   139.2550 H            1 PPG7500   0.0000
    29 H2A3        29.6375    63.6838   138.4106 H            1 PPG7500   0.0000
    30 H4          30.8533    59.3464   138.9022 H            1 PPG7500   0.0000
    31 H4A1        32.2480    58.4813   135.8616 H            1 PPG7500   0.0000
    32 H4A2        31.4968    58.4375   137.3109 H            1 PPG7500   0.0000
    33 H7          32.7563    63.2147   134.9706 H            1 PPG7500   0.0000
    34 H5A1        33.3155    59.6518   134.5237 H            1 PPG7500   0.0000
    35 H5A2        34.3655    60.9001   134.6005 H            1 PPG7500   0.0000
    36 H4A         34.1990    59.1015   137.5974 H            1 PPG7500   0.0000
    37 H2B         33.7136    54.6353   138.7911 H            1 PPG7500   0.0000
    38 H3B         32.5431    58.4039   139.6622 H            1 PPG7500   0.0000
    39 HBI1        33.7295    56.0174   136.1831 H            1 PPG7500   0.0000
    40 HBI2        34.3808    55.2967   137.4957 H            1 PPG7500   0.0000
    41 HGI1        35.7145    57.3352   136.2900 H            1 PPG7500   0.0000
    42 HGI2        35.6492    55.8743   135.5633 H            1 PPG7500   0.0000
    43 HEI1        38.7557    55.9331   136.6842 H            1 PPG7500   0.0000
    44 HEI2        37.7999    56.5913   135.5353 H            1 PPG7500   0.0000
    45 HFI1        36.9089    54.4074   135.0605 H            1 PPG7500   0.0000
    46 HFI2        37.9298    53.7694   136.1638 H            1 PPG7500   0.0000
    47 HI1         39.4243    53.6485   134.7110 H            1 PPG7500   0.0000
    48 HI2         38.4033    54.2865   133.6077 H            1 PPG7500   0.0000
    49 HI3         39.3541    55.2667   134.5032 H            1 PPG7500   0.0000
    50 H24         31.5521    64.1407   136.7492 H            1 PPG7500   0.0000
@<TRIPOS>BOND
     1    1    2      ar
     2    1    9      ar
     3    2    3       1
     4    2    4      ar
     5    4    5       1
     6    4    6      ar
     7    6    7       1
     8    6    8      ar
     9    7   16       1
    10    8    9      ar
    11    8   10       1
    12   10   11       1
    13   11   12       1
    14   12   13      ar
    15   12   14      ar
    16   12   15      ar
    17   16   17       1
    18   17   18       2
    19   17   21       1
    20   18   19       1
    21   18   20       1
    22   21   22       1
    23   22   23       1
    24   23   24       1
    25   24   25       1
    26   25   26       1
    27    3   27       1
    28    3   28       1
    29    3   29       1
    30    5   30       1
    31    7   31       1
    32    7   32       1
    33    9   33       1
    34   10   34       1
    35   10   35       1
    36   26   48       1
    37   26   47       1
    38   16   36       1
    39   19   37       1
    40   20   38       1
    41   21   39       1
    42   21   40       1
    43   22   41       1
    44   22   42       1
    45   24   43       1
    46   24   44       1
    47   25   45       1
    48   25   46       1
    49   26   49       1
    50    1   50       1
@<TRIPOS>SUBSTRUCTURE
     1 PPG7500     1 GROUP             4 G     PPG     0 **** PPG G7500
