@<TRIPOS>MOLECULE
3b4y_F42_1_ligand
   74    76     1     0     0
SMALL
NO_CHARGES


@<TRIPOS>ATOM
     1 N1         -11.2470    19.4380    33.3950 N.pl3        1 F42338   0.0000
     2 C2         -11.1820    19.6850    32.0720 C.2          1 F42338   0.0000
     3 O2         -10.9990    18.7230    31.3020 O.2          1 F42338   0.0000
     4 N3         -11.2890    20.9530    31.5990 N.pl3        1 F42338   0.0000
     5 C4         -11.4590    21.9790    32.4380 C.2          1 F42338   0.0000
     6 O4         -11.5710    23.2330    31.9560 O.2          1 F42338   0.0000
     7 C4A        -11.5430    21.7320    33.9060 C.2          1 F42338   0.0000
     8 C5         -11.7670    22.8710    34.8470 C.3          1 F42338   0.0000
     9 C5A        -11.2260    22.5430    36.1920 C.ar         1 F42338   0.0000
    10 C6         -10.9400    23.5800    37.0780 C.ar         1 F42338   0.0000
    11 C7         -10.6780    23.3070    38.4180 C.ar         1 F42338   0.0000
    12 C8         -10.7240    21.9840    38.8690 C.ar         1 F42338   0.0000
    13 O8M        -10.4900    21.6670    40.1670 O.3          1 F42338   0.0000
    14 C9         -11.0320    20.9430    37.9950 C.ar         1 F42338   0.0000
    15 C9A        -11.2680    21.2230    36.6380 C.ar         1 F42338   0.0000
    16 N10        -11.0650    20.1040    35.6890 N.pl3        1 F42338   0.0000
    17 C10        -11.4440    20.4090    34.3220 C.2          1 F42338   0.0000
    18 C1'        -11.8220    18.9990    36.2030 C.3          1 F42338   0.0000
    19 C2'        -11.3770    17.6370    35.7510 C.3          1 F42338   0.0000
    20 O2'        -10.0650    17.4330    35.1680 O.3          1 F42338   0.0000
    21 C3'        -11.8080    16.8080    36.9600 C.3          1 F42338   0.0000
    22 O3'        -12.4250    15.7030    36.3660 O.3          1 F42338   0.0000
    23 C4'        -10.8300    16.3960    38.0480 C.3          1 F42338   0.0000
    24 O4'        -10.4520    17.4340    38.9810 O.3          1 F42338   0.0000
    25 C5'        -11.4610    15.2090    38.7700 C.3          1 F42338   0.0000
    26 O5'        -11.0680    15.2510    40.1060 O.3          1 F42338   0.0000
    27 P           -9.9670    14.2530    40.7170 P.3          1 F42338   0.0000
    28 O1P         -9.7530    14.8060    42.1240 O.co2        1 F42338   0.0000
    29 O2P         -8.7890    13.9930    39.8290 O.co2        1 F42338  -1.0000
    30 O3P        -10.6970    12.7750    40.7230 O.3          1 F42338   0.0000
    31 C1I        -11.9500    12.3390    41.2880 C.3          1 F42338   0.0000
    32 C2I        -13.2090    13.1360    40.9320 C.3          1 F42338   0.0000
    33 C3I        -11.8080    12.0060    42.7620 C.2          1 F42338   0.0000
    34 O3I        -12.5660    12.4230    43.6110 O.2          1 F42338   0.0000
    35 N1H        -10.7810    11.1860    42.9760 N.am         1 F42338   0.0000
    36 C1H        -10.2110    10.5120    44.1660 C.3          1 F42338   0.0000
    37 C2H         -9.5470    11.4220    45.1510 C.2          1 F42338   0.0000
    38 O2U         -9.6900    11.1740    46.3760 O.co2        1 F42338   0.0000
    39 O2T         -8.8550    12.3580    44.6690 O.co2        1 F42338  -1.0000
    40 C3H        -11.2500     9.5840    44.7970 C.3          1 F42338   0.0000
    41 C4H        -11.9740     8.8280    43.6940 C.3          1 F42338   0.0000
    42 C5H        -11.7710     7.3280    43.7200 C.2          1 F42338   0.0000
    43 O5H        -10.8260     6.8796    44.3469 O.2          1 F42338   0.0000
    44 N1G        -12.6115     6.5474    43.0411 N.am         1 F42338   0.0000
    45 H1         -11.1452    18.4939    33.7086 H            1 F42338   0.0000
    46 H2         -11.2402    21.1206    30.6144 H            1 F42338   0.0000
    47 H3         -12.7481    23.0499    34.9207 H            1 F42338   0.0000
    48 H4         -11.3052    23.6852    34.4952 H            1 F42338   0.0000
    49 H5         -10.9229    24.5245    36.7499 H            1 F42338   0.0000
    50 H6         -10.4592    24.0493    39.0514 H            1 F42338   0.0000
    51 H8M        -10.2784    22.3875    40.8274 H            1 F42338   0.0000
    52 H8         -11.0848    20.0027    38.3313 H            1 F42338   0.0000
    53 H1'1       -12.7735    19.1207    35.9204 H            1 F42338   0.0000
    54 H1'2       -11.7647    19.0253    37.2010 H            1 F42338   0.0000
    55 H2'        -12.0197    17.3858    35.0272 H            1 F42338   0.0000
    56 H12         -9.3621    17.6992    35.8276 H            1 F42338   0.0000
    57 H3'        -12.5331    17.3262    37.4136 H            1 F42338   0.0000
    58 H14        -13.3780    15.6527    36.6648 H            1 F42338   0.0000
    59 H4'         -9.9967    16.0715    37.6005 H            1 F42338   0.0000
    60 H16        -10.0175    18.1858    38.4851 H            1 F42338   0.0000
    61 H5'1       -11.1501    14.3551    38.3527 H            1 F42338   0.0000
    62 H5'2       -12.4575    15.2666    38.7086 H            1 F42338   0.0000
    63 H1I        -12.1051    11.4491    40.8591 H            1 F42338   0.0000
    64 H2I1       -14.0009    12.7291    41.3873 H            1 F42338   0.0000
    65 H2I2       -13.1007    14.0830    41.2345 H            1 F42338   0.0000
    66 H2I3       -13.3472    13.1161    39.9418 H            1 F42338   0.0000
    67 H1H        -10.2769    10.9761    42.1383 H            1 F42338   0.0000
    68 H24         -9.4884     9.9141    43.8190 H            1 F42338   0.0000
    69 H3H1       -11.9083    10.1247    45.3206 H            1 F42338   0.0000
    70 H3H2       -10.7938     8.9342    45.4050 H            1 F42338   0.0000
    71 H4H1       -11.6470     9.1718    42.8137 H            1 F42338   0.0000
    72 H4H2       -12.9531     9.0118    43.7807 H            1 F42338   0.0000
    73 H1G1       -12.4674     5.5581    43.0185 H            1 F42338   0.0000
    74 H1G2       -13.3861     6.9511    42.5543 H            1 F42338   0.0000
@<TRIPOS>BOND
     1    1    2       1
     2    1   17       1
     3    2    3       2
     4    2    4       1
     5    4    5       1
     6    5    6       2
     7    5    7       1
     8    7    8       1
     9    7   17       2
    10    8    9       1
    11    9   10      ar
    12    9   15      ar
    13   10   11      ar
    14   11   12      ar
    15   12   13       1
    16   12   14      ar
    17   14   15      ar
    18   15   16       1
    19   16   17       1
    20   16   18       1
    21   18   19       1
    22   19   20       1
    23   19   21       1
    24   21   22       1
    25   21   23       1
    26   23   24       1
    27   23   25       1
    28   25   26       1
    29   26   27       1
    30   27   28      ar
    31   27   29      ar
    32   27   30       1
    33   30   31       1
    34   31   32       1
    35   31   33       1
    36   33   34       2
    37   33   35      am
    38   35   36       1
    39   36   37       1
    40   36   40       1
    41   37   38      ar
    42   37   39      ar
    43   40   41       1
    44   41   42       1
    45   42   43       2
    46   42   44      am
    47    1   45       1
    48    4   46       1
    49    8   47       1
    50    8   48       1
    51   10   49       1
    52   11   50       1
    53   13   51       1
    54   14   52       1
    55   18   53       1
    56   18   54       1
    57   19   55       1
    58   20   56       1
    59   21   57       1
    60   22   58       1
    61   23   59       1
    62   24   60       1
    63   25   61       1
    64   25   62       1
    65   44   74       1
    66   31   63       1
    67   32   64       1
    68   32   65       1
    69   32   66       1
    70   35   67       1
    71   36   68       1
    72   44   73       1
    73   40   69       1
    74   40   70       1
    75   41   71       1
    76   41   72       1
@<TRIPOS>SUBSTRUCTURE
     1 F42338      1 GROUP             4 A     F42     0 **** F42 A 338
