@<TRIPOS>MOLECULE
4pv5_CBW_1_ligand
   79    83     1     0     0
SMALL
NO_CHARGES


@<TRIPOS>ATOM
     1 C1          15.7620     3.0170    23.5270 C.3          1 CBW202   0.0000
     2 C2          16.7300     2.6540    24.6520 C.3          1 CBW202   0.0000
     3 C3          16.7250     1.1640    24.9150 C.3          1 CBW202   0.0000
     4 C4          15.3500     0.6260    25.3530 C.3          1 CBW202   0.0000
     5 C5          14.2890     1.7550    25.1290 C.3          1 CBW202   0.0000
     6 C6          12.8600     1.3740    25.5180 C.3          1 CBW202   0.0000
     7 C7          12.0690     2.6470    25.8190 C.3          1 CBW202   0.0000
     8 C8          11.9860     3.6010    24.6170 C.3          1 CBW202   0.0000
     9 C9          13.4060     3.8080    23.9900 C.3          1 CBW202   0.0000
    10 C10         14.3190     2.5370    23.7720 C.3          1 CBW202   0.0000
    11 C11         13.3100     4.7610    22.8020 C.2          1 CBW202   0.0000
    12 C12         12.2860     5.8090    22.8740 C.2          1 CBW202   0.0000
    13 C13         11.3990     5.9500    23.8660 C.2          1 CBW202   0.0000
    14 C14         11.4570     5.0190    25.0820 C.3          1 CBW202   0.0000
    15 C15         10.0820     4.8500    25.7600 C.3          1 CBW202   0.0000
    16 C16          9.2360     6.1080    25.7740 C.3          1 CBW202   0.0000
    17 C17          8.9890     6.6670    24.3690 C.3          1 CBW202   0.0000
    18 C18         10.3510     7.0580    23.7400 C.3          1 CBW202   0.0000
    19 C19         13.8940     1.6890    22.5590 C.3          1 CBW202   0.0000
    20 C20         10.8820     8.4200    24.2260 C.3          1 CBW202   0.0000
    21 C21          9.9100     9.6000    24.0110 C.3          1 CBW202   0.0000
    22 C22          8.5230     9.0740    23.6150 C.3          1 CBW202   0.0000
    23 C23          8.0820     7.9020    24.4710 C.3          1 CBW202   0.0000
    24 C24         15.0670    -0.6890    24.6290 C.3          1 CBW202   0.0000
    25 C25         15.4050     0.3150    26.8480 C.3          1 CBW202   0.0000
    26 C26         11.0060     2.9820    23.6020 C.3          1 CBW202   0.0000
    27 C27         12.3890     5.6790    26.0950 C.3          1 CBW202   0.0000
    28 C28          8.2880     5.6090    23.5070 C.3          1 CBW202   0.0000
    29 C33         10.2980    10.5240    22.8630 C.2          1 CBW202   0.0000
    30 C34          9.8110    10.4230    25.3020 C.3          1 CBW202   0.0000
    31 O3          17.2100     0.4730    23.7580 O.3          1 CBW202   0.0000
    32 O11         14.0260     4.6760    21.8160 O.2          1 CBW202   0.0000
    33 O34         11.4000    10.2120    22.2200 O.co2        1 CBW202   0.0000
    34 O35          9.5820    11.4650    22.5630 O.co2        1 CBW202  -1.0000
    35 H1          16.0931     2.6020    22.6796 H            1 CBW202   0.0000
    36 H2          15.7512     4.0121    23.4288 H            1 CBW202   0.0000
    37 H3          16.4565     3.1338    25.4857 H            1 CBW202   0.0000
    38 H4          17.6534     2.9368    24.3923 H            1 CBW202   0.0000
    39 H5          17.3676     0.9886    25.6609 H            1 CBW202   0.0000
    40 H6          14.5387     2.4486    25.8047 H            1 CBW202   0.0000
    41 H7          12.8779     0.7907    26.3301 H            1 CBW202   0.0000
    42 H8          12.4273     0.8812    24.7631 H            1 CBW202   0.0000
    43 H9          12.5128     3.1263    26.5762 H            1 CBW202   0.0000
    44 H10         11.1404     2.3894    26.0861 H            1 CBW202   0.0000
    45 H11         13.8968     4.3380    24.6815 H            1 CBW202   0.0000
    46 H12         12.2479     6.4691    22.1238 H            1 CBW202   0.0000
    47 H13         10.2322     4.5628    26.7060 H            1 CBW202   0.0000
    48 H14          9.5771     4.1382    25.2717 H            1 CBW202   0.0000
    49 H15          9.7055     6.8037    26.3176 H            1 CBW202   0.0000
    50 H16          8.3536     5.8960    26.1941 H            1 CBW202   0.0000
    51 H17         10.1803     7.1639    22.7604 H            1 CBW202   0.0000
    52 H18         12.9579     1.3632    22.6916 H            1 CBW202   0.0000
    53 H19         13.9385     2.2469    21.7303 H            1 CBW202   0.0000
    54 H20         14.5096     0.9063    22.4674 H            1 CBW202   0.0000
    55 H21         11.7288     8.6191    23.7328 H            1 CBW202   0.0000
    56 H22         11.0751     8.3488    25.2046 H            1 CBW202   0.0000
    57 H23          8.5517     8.7807    22.6594 H            1 CBW202   0.0000
    58 H24          7.8580     9.8139    23.7167 H            1 CBW202   0.0000
    59 H25          8.0654     8.2002    25.4254 H            1 CBW202   0.0000
    60 H26          7.1600     7.6374    24.1884 H            1 CBW202   0.0000
    61 H27         14.1745    -1.0400    24.9121 H            1 CBW202   0.0000
    62 H28         15.0655    -0.5321    23.6414 H            1 CBW202   0.0000
    63 H29         15.7758    -1.3557    24.8596 H            1 CBW202   0.0000
    64 H30         14.5181    -0.0359    27.1483 H            1 CBW202   0.0000
    65 H31         16.1109    -0.3722    27.0198 H            1 CBW202   0.0000
    66 H32         15.6220     1.1496    27.3543 H            1 CBW202   0.0000
    67 H33         10.9293     3.5809    22.8048 H            1 CBW202   0.0000
    68 H34         11.3453     2.0863    23.3146 H            1 CBW202   0.0000
    69 H35         10.1073     2.8771    24.0278 H            1 CBW202   0.0000
    70 H36         12.0171     6.5687    26.3598 H            1 CBW202   0.0000
    71 H37         12.4680     5.0966    26.9041 H            1 CBW202   0.0000
    72 H38         13.2924     5.8040    25.6848 H            1 CBW202   0.0000
    73 H39          8.1286     5.9775    22.5911 H            1 CBW202   0.0000
    74 H40          8.8655     4.7951    23.4430 H            1 CBW202   0.0000
    75 H41          7.4130     5.3648    23.9250 H            1 CBW202   0.0000
    76 H42          9.1814    11.1873    25.1626 H            1 CBW202   0.0000
    77 H43          9.4718     9.8424    26.0422 H            1 CBW202   0.0000
    78 H44         10.7153    10.7757    25.5426 H            1 CBW202   0.0000
    79 H45         17.6619    -0.3732    24.0402 H            1 CBW202   0.0000
@<TRIPOS>BOND
     1    1    2       1
     2    1   10       1
     3    2    3       1
     4    3    4       1
     5    3   31       1
     6    4    5       1
     7    4   24       1
     8    4   25       1
     9    5    6       1
    10    5   10       1
    11    6    7       1
    12    7    8       1
    13    8    9       1
    14    8   14       1
    15    8   26       1
    16    9   10       1
    17    9   11       1
    18   10   19       1
    19   11   12       1
    20   11   32       2
    21   12   13       2
    22   13   14       1
    23   13   18       1
    24   14   15       1
    25   14   27       1
    26   15   16       1
    27   16   17       1
    28   17   18       1
    29   17   23       1
    30   17   28       1
    31   18   20       1
    32   20   21       1
    33   21   22       1
    34   21   29       1
    35   21   30       1
    36   22   23       1
    37   29   33      ar
    38   29   34      ar
    39    1   35       1
    40    1   36       1
    41    2   37       1
    42    2   38       1
    43    3   39       1
    44    5   40       1
    45    6   41       1
    46    6   42       1
    47    7   43       1
    48    7   44       1
    49    9   45       1
    50   12   46       1
    51   15   47       1
    52   15   48       1
    53   16   49       1
    54   16   50       1
    55   18   51       1
    56   19   52       1
    57   19   53       1
    58   19   54       1
    59   20   55       1
    60   20   56       1
    61   22   57       1
    62   22   58       1
    63   23   59       1
    64   23   60       1
    65   24   61       1
    66   24   62       1
    67   24   63       1
    68   25   64       1
    69   25   65       1
    70   25   66       1
    71   26   67       1
    72   26   68       1
    73   26   69       1
    74   27   70       1
    75   27   71       1
    76   27   72       1
    77   28   73       1
    78   28   74       1
    79   28   75       1
    80   30   76       1
    81   30   77       1
    82   30   78       1
    83   31   79       1
@<TRIPOS>SUBSTRUCTURE
     1 CBW202      1 GROUP             4 A     CBW     0 **** CBW A 202
