@<TRIPOS>MOLECULE
1dxq_FAD_2_ligand
   84    89     1     0     0
SMALL
NO_CHARGES


@<TRIPOS>ATOM
     1 PA         -25.7860   -17.6900    42.3230 P.3          1 FAD300   0.0000
     2 O1A        -26.9960   -18.4980    42.0430 O.co2        1 FAD300   0.0000
     3 O2A        -25.3920   -16.8050    41.3730 O.co2        1 FAD300  -1.0000
     4 O5B        -26.3040   -16.8870    43.4680 O.3          1 FAD300   0.0000
     5 C5B        -25.4870   -15.9150    44.1890 C.3          1 FAD300   0.0000
     6 C4B        -26.4440   -14.9360    44.9120 C.3          1 FAD300   0.0000
     7 O4B        -25.5410   -13.9620    45.5910 O.3          1 FAD300   0.0000
     8 C3B        -27.3370   -14.0660    43.9990 C.3          1 FAD300   0.0000
     9 O3B        -28.5110   -13.6530    44.6270 O.3          1 FAD300   0.0000
    10 C2B        -26.3370   -12.9520    43.5750 C.3          1 FAD300   0.0000
    11 O2B        -26.9650   -11.7930    43.0740 O.3          1 FAD300   0.0000
    12 C1B        -25.5610   -12.6860    44.8430 C.3          1 FAD300   0.0000
    13 N9A        -24.1210   -12.3510    44.6750 N.pl3        1 FAD300   0.0000
    14 C8A        -23.2910   -12.7280    43.6360 C.2          1 FAD300   0.0000
    15 N7A        -22.0480   -12.2640    43.7590 N.2          1 FAD300   0.0000
    16 C5A        -22.0490   -11.5430    44.9380 C.ar         1 FAD300   0.0000
    17 C6A        -20.9730   -10.7650    45.6500 C.ar         1 FAD300   0.0000
    18 N6A        -19.7470   -10.6380    45.2110 N.pl3        1 FAD300   0.0000
    19 N1A        -21.3620   -10.1620    46.8440 N.ar         1 FAD300   0.0000
    20 C2A        -22.6510   -10.2720    47.3360 C.ar         1 FAD300   0.0000
    21 N3A        -23.6960   -10.9520    46.7590 N.ar         1 FAD300   0.0000
    22 C4A        -23.3470   -11.5770    45.5520 C.ar         1 FAD300   0.0000
    23 N1         -28.5050   -27.4920    45.3440 N.2          1 FAD300   0.0000
    24 C2         -28.5850   -28.3220    46.3970 C.2          1 FAD300   0.0000
    25 O2         -28.7710   -27.9220    47.5120 O.2          1 FAD300   0.0000
    26 N3         -28.4160   -29.7410    46.2580 N.pl3        1 FAD300   0.0000
    27 C4         -28.2060   -30.3390    45.0180 C.2          1 FAD300   0.0000
    28 O4         -28.0660   -31.5460    44.9540 O.2          1 FAD300   0.0000
    29 C4X        -28.1720   -29.4540    43.8470 C.2          1 FAD300   0.0000
    30 N5         -27.9780   -29.9840    42.5930 N.2          1 FAD300   0.0000
    31 C5X        -27.9030   -29.1210    41.5210 C.ar         1 FAD300   0.0000
    32 C6         -27.7090   -29.7000    40.2290 C.ar         1 FAD300   0.0000
    33 C7         -27.6220   -28.9070    39.0900 C.ar         1 FAD300   0.0000
    34 C7M        -27.4220   -29.5630    37.7390 C.3          1 FAD300   0.0000
    35 C8         -27.7280   -27.4400    39.2040 C.ar         1 FAD300   0.0000
    36 C8M        -27.6420   -26.5230    38.0050 C.3          1 FAD300   0.0000
    37 C9         -27.9210   -26.8460    40.4790 C.ar         1 FAD300   0.0000
    38 C9A        -28.0110   -27.6630    41.6440 C.ar         1 FAD300   0.0000
    39 N10        -28.2210   -27.1350    43.0180 N.pl3        1 FAD300   0.0000
    40 C10        -28.3040   -27.9840    44.0820 C.2          1 FAD300   0.0000
    41 C1'        -28.3350   -25.6560    43.2230 C.3          1 FAD300   0.0000
    42 C2'        -26.9150   -25.0120    43.3570 C.3          1 FAD300   0.0000
    43 O2'        -26.2660   -25.6000    44.4740 O.3          1 FAD300   0.0000
    44 C3'        -27.0340   -23.4830    43.5540 C.3          1 FAD300   0.0000
    45 O3'        -27.7030   -22.9240    42.4120 O.3          1 FAD300   0.0000
    46 C4'        -25.6260   -22.8490    43.6650 C.3          1 FAD300   0.0000
    47 O4'        -24.9220   -23.3890    44.7740 O.3          1 FAD300   0.0000
    48 C5'        -25.7530   -21.3510    43.8210 C.3          1 FAD300   0.0000
    49 O5'        -24.3070   -20.7450    43.8910 O.3          1 FAD300   0.0000
    50 P          -23.8220   -19.7090    42.8720 P.3          1 FAD300   0.0000
    51 O1P        -22.3780   -19.3700    43.2110 O.co2        1 FAD300   0.0000
    52 O2P        -24.0720   -20.0990    41.5710 O.co2        1 FAD300  -1.0000
    53 O3P        -24.5720   -18.4970    43.0190 O.3          1 FAD300   0.0000
    54 H5B1       -24.9089   -15.4129    43.5459 H            1 FAD300   0.0000
    55 H5B2       -24.9112   -16.3845    44.8584 H            1 FAD300   0.0000
    56 H4B        -27.0011   -15.4238    45.5841 H            1 FAD300   0.0000
    57 H3B        -27.5802   -14.6002    43.1894 H            1 FAD300   0.0000
    58 H5         -29.0491   -13.0958    43.9945 H            1 FAD300   0.0000
    59 H2B        -25.7162   -13.3153    42.8803 H            1 FAD300   0.0000
    60 H7         -26.2699   -11.1201    42.8211 H            1 FAD300   0.0000
    61 H1B        -26.0174   -11.9787    45.3828 H            1 FAD300   0.0000
    62 H8A        -23.5934   -13.2929    42.8682 H            1 FAD300   0.0000
    63 H6A1       -19.0811   -10.1063    45.7343 H            1 FAD300   0.0000
    64 H6A2       -19.4759   -11.0726    44.3522 H            1 FAD300   0.0000
    65 H2A        -22.8414    -9.8084    48.2013 H            1 FAD300   0.0000
    66 H13        -28.4501   -30.3165    47.0751 H            1 FAD300   0.0000
    67 H14        -27.6345   -30.6935    40.1424 H            1 FAD300   0.0000
    68 H7M1       -27.3805   -28.8594    37.0297 H            1 FAD300   0.0000
    69 H7M2       -26.5674   -30.0822    37.7438 H            1 FAD300   0.0000
    70 H7M3       -28.1861   -30.1804    37.5518 H            1 FAD300   0.0000
    71 H8M1       -27.7376   -25.5735    38.3040 H            1 FAD300   0.0000
    72 H8M2       -26.7566   -26.6435    37.5560 H            1 FAD300   0.0000
    73 H8M3       -28.3749   -26.7454    37.3620 H            1 FAD300   0.0000
    74 H21        -27.9940   -25.8520    40.5602 H            1 FAD300   0.0000
    75 H1'1       -28.8573   -25.4784    44.0571 H            1 FAD300   0.0000
    76 H1'2       -28.8081   -25.2506    42.4408 H            1 FAD300   0.0000
    77 H2'        -26.3861   -25.1997    42.5293 H            1 FAD300   0.0000
    78 H25        -25.7570   -26.4078    44.1766 H            1 FAD300   0.0000
    79 H3'        -27.5590   -23.2884    44.3825 H            1 FAD300   0.0000
    80 H27        -28.2121   -22.1093    42.6897 H            1 FAD300   0.0000
    81 H4'        -25.1145   -23.0460    42.8286 H            1 FAD300   0.0000
    82 H29        -25.2234   -24.3289    44.9345 H            1 FAD300   0.0000
    83 H5'1       -26.2508   -21.1386    44.6619 H            1 FAD300   0.0000
    84 H5'2       -26.2433   -20.9688    43.0377 H            1 FAD300   0.0000
@<TRIPOS>BOND
     1    1    2      ar
     2    1    3      ar
     3    1    4       1
     4    1   53       1
     5    4    5       1
     6    5    6       1
     7    6    7       1
     8    6    8       1
     9    7   12       1
    10    8    9       1
    11    8   10       1
    12   10   11       1
    13   10   12       1
    14   12   13       1
    15   13   14       1
    16   13   22       1
    17   14   15       2
    18   15   16       1
    19   16   17      ar
    20   16   22      ar
    21   17   18       1
    22   17   19      ar
    23   19   20      ar
    24   20   21      ar
    25   21   22      ar
    26   23   24       1
    27   23   40       2
    28   24   25       2
    29   24   26       1
    30   26   27       1
    31   27   28       2
    32   27   29       1
    33   29   30       2
    34   29   40       1
    35   30   31       1
    36   31   32      ar
    37   31   38      ar
    38   32   33      ar
    39   33   34       1
    40   33   35      ar
    41   35   36       1
    42   35   37      ar
    43   37   38      ar
    44   38   39       1
    45   39   40       1
    46   39   41       1
    47   41   42       1
    48   42   43       1
    49   42   44       1
    50   44   45       1
    51   44   46       1
    52   46   47       1
    53   46   48       1
    54   48   49       1
    55   49   50       1
    56   50   51      ar
    57   50   52      ar
    58   50   53       1
    59   48   84       1
    60    5   54       1
    61    5   55       1
    62    6   56       1
    63    8   57       1
    64    9   58       1
    65   10   59       1
    66   11   60       1
    67   12   61       1
    68   14   62       1
    69   18   63       1
    70   18   64       1
    71   20   65       1
    72   26   66       1
    73   32   67       1
    74   34   68       1
    75   34   69       1
    76   34   70       1
    77   36   71       1
    78   36   72       1
    79   36   73       1
    80   37   74       1
    81   41   75       1
    82   41   76       1
    83   42   77       1
    84   43   78       1
    85   44   79       1
    86   45   80       1
    87   46   81       1
    88   47   82       1
    89   48   83       1
@<TRIPOS>SUBSTRUCTURE
     1 FAD300      1 GROUP             4 B     FAD     0 **** FAD B 300
