@<TRIPOS>MOLECULE
2qt5_GLY_THR_GLU_VAL_1_ligand
   55    54     4     0     0
SMALL
NO_CHARGES


@<TRIPOS>ATOM
     1 N            7.7610    25.6870     0.2540 N.4          1 GLY1006   1.0000
     2 CA           7.6030    24.9110     1.5200 C.3          1 GLY1006   0.0000
     3 C            8.6570    25.2400     2.5600 C.2          1 GLY1006   0.0000
     4 O            9.6320    25.9400     2.2730 O.2          1 GLY1006   0.0000
     5 H1           7.0402    25.4269    -0.3885 H            1 GLY1006   0.0000
     6 H2           7.6942    26.6649     0.4519 H            1 GLY1006   0.0000
     7 HA1          7.6628    23.9363     1.3046 H            1 GLY1006   0.0000
     8 HA2          6.7026    25.1125     1.9057 H            1 GLY1006   0.0000
     9 N            8.4710    24.7190     3.7690 N.am         2 THR1007   0.0000
    10 CA           9.3880    24.9910     4.8790 C.3          2 THR1007   0.0000
    11 C            9.9550    23.6930     5.4550 C.2          2 THR1007   0.0000
    12 O            9.2210    22.7170     5.6540 O.2          2 THR1007   0.0000
    13 CB           8.6800    25.7940     5.9930 C.3          2 THR1007   0.0000
    14 OG1          7.8960    26.8450     5.4070 O.3          2 THR1007   0.0000
    15 CG2          9.6890    26.3720     6.9910 C.3          2 THR1007   0.0000
    16 H5           7.6824    24.1243     3.9253 H            2 THR1007   0.0000
    17 HA          10.1486    25.5392     4.5313 H            2 THR1007   0.0000
    18 HB           8.0654    25.1777     6.4854 H            2 THR1007   0.0000
    19 HG1          6.9735    26.5077     5.2193 H            2 THR1007   0.0000
    20 HG21         9.2021    26.8849     7.6980 H            2 THR1007   0.0000
    21 HG22        10.2034    25.6264     7.4146 H            2 THR1007   0.0000
    22 HG23        10.3200    26.9820     6.5116 H            2 THR1007   0.0000
    23 N           11.2600    23.6980     5.7220 N.am         3 GLU1008   0.0000
    24 CA          11.9490    22.5410     6.2840 C.3          3 GLU1008   0.0000
    25 C           11.8140    22.4500     7.7980 C.2          3 GLU1008   0.0000
    26 O           11.9580    23.4490     8.5140 O.2          3 GLU1008   0.0000
    27 CB          13.4370    22.5520     5.9090 C.3          3 GLU1008   0.0000
    28 CG          14.1760    21.2640     6.2970 C.3          3 GLU1008   0.0000
    29 CD          15.5940    21.1940     5.7530 C.2          3 GLU1008   0.0000
    30 OE1         16.2810    22.2430     5.6890 O.co2        3 GLU1008   0.0000
    31 OE2         16.0280    20.0800     5.3910 O.co2        3 GLU1008  -1.0000
    32 H12         11.7873    24.5257     5.5301 H            3 GLU1008   0.0000
    33 H13         11.5393    21.7185     5.8895 H            3 GLU1008   0.0000
    34 HB1         13.8751    23.3208     6.3749 H            3 GLU1008   0.0000
    35 HB2         13.5131    22.6747     4.9195 H            3 GLU1008   0.0000
    36 H16         13.6612    20.4839     5.9414 H            3 GLU1008   0.0000
    37 HG2         14.2163    21.2100     7.2947 H            3 GLU1008   0.0000
    38 N           11.5420    21.2370     8.2720 N.am         4 VAL1009   0.0000
    39 CA          11.5150    20.9340     9.6990 C.3          4 VAL1009   0.0000
    40 C           12.4770    19.7840    10.0020 C.2          4 VAL1009   0.0000
    41 O           13.1510    19.2670     9.0970 O.co2        4 VAL1009   0.0000
    42 CB          10.0810    20.6060    10.2110 C.3          4 VAL1009   0.0000
    43 CG1          9.1640    21.8100    10.0370 C.3          4 VAL1009   0.0000
    44 CG2          9.5050    19.3660     9.5050 C.3          4 VAL1009   0.0000
    45 OXT         12.6010    19.3510    11.1520 O.co2        4 VAL1009  -1.0000
    46 H18         11.3478    20.5017     7.6227 H            4 VAL1009   0.0000
    47 H19         11.8388    21.7424    10.1905 H            4 VAL1009   0.0000
    48 H20         10.1416    20.4036    11.1884 H            4 VAL1009   0.0000
    49 HG11         8.2489    21.5829    10.3701 H            4 VAL1009   0.0000
    50 HG12         9.5261    22.5829    10.5581 H            4 VAL1009   0.0000
    51 HG13         9.1151    22.0546     9.0686 H            4 VAL1009   0.0000
    52 H24          8.5862    19.1807     9.8535 H            4 VAL1009   0.0000
    53 H25          9.4604    19.5338     8.5202 H            4 VAL1009   0.0000
    54 H26         10.0941    18.5777     9.6825 H            4 VAL1009   0.0000
    55 H27          8.6544    25.4888    -0.1492 H            4 VAL1009   0.0000
@<TRIPOS>BOND
     1    1    2       1
     2    2    3       1
     3    3    4       2
     4    1    5       1
     5    1    6       1
     6    2    7       1
     7    2    8       1
     8    3    9      am
     9    9   10       1
    10   10   13       1
    11   10   11       1
    12   13   15       1
    13   13   14       1
    14   11   12       2
    15   15   22       1
    16    9   16       1
    17   10   17       1
    18   11   23      am
    19   13   18       1
    20   14   19       1
    21   15   20       1
    22   15   21       1
    23   23   24       1
    24   24   27       1
    25   24   25       1
    26   27   28       1
    27   28   29       1
    28   29   30      ar
    29   29   31      ar
    30   25   26       2
    31   28   37       1
    32   23   32       1
    33   24   33       1
    34   25   38      am
    35   27   34       1
    36   27   35       1
    37   28   36       1
    38   38   39       1
    39   39   42       1
    40   39   40       1
    41   42   43       1
    42   42   44       1
    43   40   41      ar
    44   40   45      ar
    45   44   54       1
    46   38   46       1
    47   39   47       1
    48   42   48       1
    49   43   49       1
    50   43   50       1
    51   43   51       1
    52   44   52       1
    53   44   53       1
    54    1   55       1
@<TRIPOS>SUBSTRUCTURE
     1 GLY1006     1 RESIDUE           4 X     GLY     0 **** GLY X1006
     2 THR1007     9 RESIDUE           4 X     THR     0 **** THR X1007
     3 GLU1008    23 RESIDUE           4 X     GLU     0 **** GLU X1008
     4 VAL1009    38 RESIDUE           4 X     VAL     0 **** VAL X1009
