@<TRIPOS>MOLECULE
2pxc_G3A_1_ligand
   72    77     1     0     0
SMALL
NO_CHARGES


@<TRIPOS>ATOM
     1 O36        -37.5660    20.0100   -18.1880 O.2          1 G3A501   0.0000
     2 C36        -37.8510    19.8760   -16.9780 C.2          1 G3A501   0.0000
     3 N31        -39.1010    20.1190   -16.5560 N.2          1 G3A501   0.0000
     4 C32        -39.4250    19.9740   -15.2610 C.2          1 G3A501   0.0000
     5 N32        -40.6970    20.2250   -14.8650 N.pl3        1 G3A501   0.0000
     6 N33        -38.4930    19.5830   -14.3510 N.pl3        1 G3A501   0.0000
     7 C35        -36.8740    19.4760   -16.0670 C.2          1 G3A501   0.0000
     8 C34        -37.2140    19.3290   -14.7290 C.2          1 G3A501   0.0000
     9 N37        -35.5660    19.1700   -16.1850 N.2          1 G3A501   0.0000
    10 C38        -35.1080    18.8420   -14.9520 C.2          1 G3A501   0.0000
    11 N39        -36.1140    18.9380   -14.0620 N.pl3        1 G3A501   0.0000
    12 C41        -36.0240    18.6790   -12.5960 C.3          1 G3A501   0.0000
    13 O44        -35.0550    19.5590   -12.0150 O.3          1 G3A501   0.0000
    14 C42        -35.5420    17.2820   -12.2440 C.3          1 G3A501   0.0000
    15 O42        -36.1660    16.8530   -11.0290 O.3          1 G3A501   0.0000
    16 C43        -34.0560    17.4280   -12.0110 C.3          1 G3A501   0.0000
    17 O43        -33.5430    16.4210   -11.1410 O.3          1 G3A501   0.0000
    18 C44        -33.9730    18.8190   -11.4210 C.3          1 G3A501   0.0000
    19 C45        -32.6310    19.4610   -11.7110 C.3          1 G3A501   0.0000
    20 O45        -32.7070    20.0930   -12.9880 O.3          1 G3A501   0.0000
    21 PA         -31.3850    20.5550   -13.7640 P.3          1 G3A501   0.0000
    22 O1A        -31.4900    22.0520   -13.8760 O.co2        1 G3A501   0.0000
    23 O2A        -31.2440    19.6910   -14.9860 O.co2        1 G3A501  -1.0000
    24 O1         -30.2460    20.0630   -12.7330 O.3          1 G3A501   0.0000
    25 PB         -28.9120    20.8680   -12.3300 P.3          1 G3A501   0.0000
    26 O2B        -29.0390    22.3680   -12.5680 O.co2        1 G3A501   0.0000
    27 O3B        -28.5410    20.4010   -10.9430 O.co2        1 G3A501  -1.0000
    28 O3A        -27.8840    20.1930   -13.3820 O.3          1 G3A501   0.0000
    29 PG         -26.4370    20.8370   -13.6950 P.3          1 G3A501   0.0000
    30 O1G        -26.1610    21.7710   -12.5320 O.co2        1 G3A501   0.0000
    31 O2G        -25.5430    19.6880   -14.0650 O.co2        1 G3A501  -1.0000
    32 O25        -26.6320    21.7400   -15.0110 O.3          1 G3A501   0.0000
    33 C25        -27.9520    21.5090   -15.5140 C.2          1 G3A501   0.0000
    34 C24        -28.0940    21.1420   -16.7470 C.2          1 G3A501   0.0000
    35 C23        -29.4310    20.8100   -17.2660 C.3          1 G3A501   0.0000
    36 O23        -30.2800    21.9570   -17.2790 O.3          1 G3A501   0.0000
    37 C22        -29.0280    20.2170   -18.6040 C.3          1 G3A501   0.0000
    38 O22        -29.4870    21.0520   -19.6640 O.3          1 G3A501   0.0000
    39 O24        -26.9820    21.0050   -17.6420 O.3          1 G3A501   0.0000
    40 C21        -27.4920    20.1230   -18.6290 C.3          1 G3A501   0.0000
    41 N19        -26.9900    18.7560   -18.3110 N.pl3        1 G3A501   0.0000
    42 C14        -27.2350    17.6740   -19.0420 C.ar         1 G3A501   0.0000
    43 N13        -27.9380    17.4780   -20.1540 N.ar         1 G3A501   0.0000
    44 C12        -28.0760    16.1710   -20.8000 C.ar         1 G3A501   0.0000
    45 N11        -27.3830    15.0600   -20.1360 N.ar         1 G3A501   0.0000
    46 C18        -26.2070    18.4070   -17.2710 C.2          1 G3A501   0.0000
    47 N17        -25.9350    17.0780   -17.3110 N.2          1 G3A501   0.0000
    48 C15        -26.5470    16.5540   -18.3920 C.ar         1 G3A501   0.0000
    49 C16        -26.6650    15.2090   -19.0140 C.ar         1 G3A501   0.0000
    50 N16        -26.0510    14.1350   -18.4610 N.pl3        1 G3A501   0.0000
    51 H1         -40.9511    20.1207   -13.9035 H            1 G3A501   0.0000
    52 H2         -41.3812    20.5144   -15.5344 H            1 G3A501   0.0000
    53 H3         -34.1697    18.5711   -14.7370 H            1 G3A501   0.0000
    54 H4         -36.9160    18.8401   -12.1737 H            1 G3A501   0.0000
    55 H5         -35.7271    16.6404   -12.9884 H            1 G3A501   0.0000
    56 H6         -37.1586    16.8422   -11.1498 H            1 G3A501   0.0000
    57 H7         -33.5711    17.4006   -12.8851 H            1 G3A501   0.0000
    58 H8         -33.7065    15.5195   -11.5416 H            1 G3A501   0.0000
    59 H9         -34.1096    18.7684   -10.4317 H            1 G3A501   0.0000
    60 H10        -31.9162    18.7618   -11.7211 H            1 G3A501   0.0000
    61 H11        -32.4220    20.1412   -11.0084 H            1 G3A501   0.0000
    62 H12        -28.7500    21.6290   -14.9235 H            1 G3A501   0.0000
    63 H13        -29.8419    20.0981   -16.6965 H            1 G3A501   0.0000
    64 H14        -31.0787    21.7871   -16.7017 H            1 G3A501   0.0000
    65 H15        -29.4229    19.3033   -18.7000 H            1 G3A501   0.0000
    66 H16        -29.9708    21.8396   -19.2823 H            1 G3A501   0.0000
    67 H17        -27.1559    20.4002   -19.5291 H            1 G3A501   0.0000
    68 H18        -28.6070    16.0437   -21.6378 H            1 G3A501   0.0000
    69 H19        -25.8739    19.0374   -16.5698 H            1 G3A501   0.0000
    70 H20        -25.5144    14.2419   -17.6240 H            1 G3A501   0.0000
    71 H21        -26.1345    13.2355   -18.8899 H            1 G3A501   0.0000
    72 H22        -38.7532    19.4812   -13.3908 H            1 G3A501   0.0000
@<TRIPOS>BOND
     1    1    2       2
     2    2    3       1
     3    2    7       1
     4    3    4       2
     5    4    5       1
     6    4    6       1
     7    6    8       1
     8    7    8       2
     9    7    9       1
    10    8   11       1
    11    9   10       2
    12   10   11       1
    13   11   12       1
    14   12   13       1
    15   12   14       1
    16   13   18       1
    17   14   15       1
    18   14   16       1
    19   16   17       1
    20   16   18       1
    21   18   19       1
    22   19   20       1
    23   20   21       1
    24   21   22      ar
    25   21   23      ar
    26   21   24       1
    27   24   25       1
    28   25   26      ar
    29   25   27      ar
    30   25   28       1
    31   28   29       1
    32   29   30      ar
    33   29   31      ar
    34   29   32       1
    35   32   33       1
    36   33   34       2
    37   34   35       1
    38   34   39       1
    39   35   36       1
    40   35   37       1
    41   37   38       1
    42   37   40       1
    43   39   40       1
    44   40   41       1
    45   41   42       1
    46   41   46       1
    47   42   43      ar
    48   42   48      ar
    49   43   44      ar
    50   44   45      ar
    51   45   49      ar
    52   46   47       2
    53   47   48       1
    54   48   49      ar
    55   49   50       1
    56   44   68       1
    57    5   51       1
    58    5   52       1
    59   10   53       1
    60   12   54       1
    61   14   55       1
    62   15   56       1
    63   16   57       1
    64   17   58       1
    65   18   59       1
    66   19   60       1
    67   19   61       1
    68   50   71       1
    69   50   70       1
    70   46   69       1
    71   33   62       1
    72   35   63       1
    73   36   64       1
    74   37   65       1
    75   38   66       1
    76   40   67       1
    77    6   72       1
@<TRIPOS>SUBSTRUCTURE
     1 G3A501      1 GROUP             4 A     G3A     0 **** G3A A 501
