@<TRIPOS>MOLECULE
2o6h_INI_2_ligand
   35    35     1     0     0
SMALL
NO_CHARGES


@<TRIPOS>ATOM
     1 N1           7.4480    50.5650    46.1390 N.pl3        1 INI202   0.0000
     2 C2           8.5140    49.6750    45.9910 C.2          1 INI202   0.0000
     3 O2           8.2540    48.6030    45.4380 O.2          1 INI202   0.0000
     4 N3           9.7400    50.0820    46.4720 N.pl3        1 INI202   0.0000
     5 C4           9.9990    51.3070    47.0930 C.2          1 INI202   0.0000
     6 O4          11.2020    51.4610    47.4520 O.2          1 INI202   0.0000
     7 C5           8.7910    52.3030    47.2540 C.2          1 INI202   0.0000
     8 N5           9.0580    53.5850    47.9010 N.2          1 INI202   1.0000
     9 O51         10.1470    53.8540    48.2870 O.co2        1 INI202   0.0000
    10 O52          8.1520    54.3810    48.0460 O.co2        1 INI202  -1.0000
    11 C6           7.4820    51.8460    46.7300 C.2          1 INI202   0.0000
    12 N7           6.2410    52.5490    46.7410 N.pl3        1 INI202   0.0000
    13 C8           5.3490    52.2740    47.9140 C.3          1 INI202   0.0000
    14 C9           4.0300    51.4600    47.5840 C.3          1 INI202   0.0000
    15 O9           4.5690    50.2540    47.0970 O.3          1 INI202   0.0000
    16 C10          3.0040    51.9270    46.4110 C.3          1 INI202   0.0000
    17 O10          3.6810    52.1120    45.2190 O.3          1 INI202   0.0000
    18 C11          2.0640    53.3310    46.5710 C.3          1 INI202   0.0000
    19 O11          2.4600    53.7520    47.9080 O.3          1 INI202   0.0000
    20 C12          0.4900    53.4370    46.7690 C.3          1 INI202   0.0000
    21 O12         -0.0110    52.1370    46.6570 O.3          1 INI202   0.0000
    22 H1           6.5627    50.2609    45.7873 H            1 INI202   0.0000
    23 H2          10.5070    49.4488    46.3681 H            1 INI202   0.0000
    24 H3           5.9827    53.1843    46.0132 H            1 INI202   0.0000
    25 H4           5.0796    53.1518    48.3100 H            1 INI202   0.0000
    26 H5           5.8743    51.7522    48.5862 H            1 INI202   0.0000
    27 H6           3.5214    51.2858    48.4272 H            1 INI202   0.0000
    28 H7           5.4506    50.0814    47.5364 H            1 INI202   0.0000
    29 H8           2.3677    51.1692    46.2663 H            1 INI202   0.0000
    30 H9           3.0684    51.9147    44.4536 H            1 INI202   0.0000
    31 H10          2.3638    54.0123    45.9032 H            1 INI202   0.0000
    32 H11          1.9747    54.5921    48.1504 H            1 INI202   0.0000
    33 H12          0.0915    54.0231    46.0635 H            1 INI202   0.0000
    34 H13          0.2796    53.8120    47.6718 H            1 INI202   0.0000
    35 H14          0.2122    51.7704    45.7538 H            1 INI202   0.0000
@<TRIPOS>BOND
     1    1    2       1
     2    1   11       1
     3    2    3       2
     4    2    4       1
     5    4    5       1
     6    5    6       2
     7    5    7       1
     8    7    8       1
     9    7   11       2
    10    8    9      ar
    11    8   10      ar
    12   11   12       1
    13   12   13       1
    14   13   14       1
    15   14   15       1
    16   14   16       1
    17   16   17       1
    18   16   18       1
    19   18   19       1
    20   18   20       1
    21   20   21       1
    22    1   22       1
    23    4   23       1
    24   12   24       1
    25   13   25       1
    26   13   26       1
    27   14   27       1
    28   15   28       1
    29   16   29       1
    30   17   30       1
    31   18   31       1
    32   19   32       1
    33   20   33       1
    34   20   34       1
    35   21   35       1
@<TRIPOS>SUBSTRUCTURE
     1 INI202      1 GROUP             4 B     INI     0 **** INI B 202
