@<TRIPOS>MOLECULE
3wsw_NAD_4_ligand
   70    74     1     0     0
SMALL
NO_CHARGES


@<TRIPOS>ATOM
     1 PA           1.3480   -16.7780     3.8860 P.3          1 NAD402   0.0000
     2 O1A          0.4300   -17.1410     2.7750 O.co2        1 NAD402   0.0000
     3 O2A          1.3540   -17.9780     4.9710 O.co2        1 NAD402  -1.0000
     4 O5B          2.8430   -16.5300     3.2900 O.3          1 NAD402   0.0000
     5 C5B          3.8070   -16.7180     4.3370 C.3          1 NAD402   0.0000
     6 C4B          5.0490   -17.4050     3.7520 C.3          1 NAD402   0.0000
     7 O4B          6.2350   -17.0200     4.4810 O.3          1 NAD402   0.0000
     8 C3B          4.9230   -18.9390     3.8420 C.3          1 NAD402   0.0000
     9 O3B          4.8320   -19.5340     2.5380 O.3          1 NAD402   0.0000
    10 C2B          6.1920   -19.3700     4.6170 C.3          1 NAD402   0.0000
    11 O2B          6.7310   -20.6020     4.1260 O.3          1 NAD402   0.0000
    12 C1B          7.1380   -18.1510     4.4290 C.3          1 NAD402   0.0000
    13 N9A          8.1530   -18.0690     5.5070 N.pl3        1 NAD402   0.0000
    14 C8A          7.9290   -18.0910     6.8660 C.2          1 NAD402   0.0000
    15 N7A          9.0620   -18.0050     7.5110 N.2          1 NAD402   0.0000
    16 C5A         10.0860   -17.9220     6.6210 C.ar         1 NAD402   0.0000
    17 C6A         11.5120   -17.8540     6.7120 C.ar         1 NAD402   0.0000
    18 N6A         12.1400   -17.8210     7.9440 N.pl3        1 NAD402   0.0000
    19 N1A         12.2410   -17.8300     5.5720 N.ar         1 NAD402   0.0000
    20 C2A         11.6600   -17.8690     4.3670 C.ar         1 NAD402   0.0000
    21 N3A         10.3330   -17.9340     4.2350 N.ar         1 NAD402   0.0000
    22 C4A          9.5150   -17.9620     5.3190 C.ar         1 NAD402   0.0000
    23 O3           0.7910   -15.4300     4.5950 O.3          1 NAD402   0.0000
    24 PN           1.2490   -14.1110     3.7550 P.3          1 NAD402   0.0000
    25 O1N          0.1810   -13.0050     3.9650 O.co2        1 NAD402   0.0000
    26 O2N          1.3550   -14.4240     2.2360 O.co2        1 NAD402  -1.0000
    27 O5D          2.6810   -13.6070     4.3230 O.3          1 NAD402   0.0000
    28 C5D          3.0090   -12.3760     3.6650 C.3          1 NAD402   0.0000
    29 C4D          3.2200   -11.2160     4.6630 C.3          1 NAD402   0.0000
    30 O4D          2.6670    -9.9820     4.0970 O.3          1 NAD402   0.0000
    31 C3D          2.5080   -11.4550     6.0300 C.3          1 NAD402   0.0000
    32 O3D          3.4330   -11.2990     7.1150 O.3          1 NAD402   0.0000
    33 C2D          1.3830   -10.4130     6.0510 C.3          1 NAD402   0.0000
    34 O2D          1.0790    -9.9810     7.3840 O.3          1 NAD402   0.0000
    35 C1D          1.9400    -9.2940     5.1480 C.3          1 NAD402   0.0000
    36 N1N          0.8710    -8.4290     4.5520 N.ar         1 NAD402   1.0000
    37 C2N          1.1880    -7.1440     4.3240 C.ar         1 NAD402   0.0000
    38 C3N          0.2290    -6.2310     3.8110 C.ar         1 NAD402   0.0000
    39 C7N          0.5900    -4.7930     3.6050 C.2          1 NAD402   0.0000
    40 O7N         -0.2300    -4.0070     3.1670 O.2          1 NAD402   0.0000
    41 N7N          1.8340    -4.3530     3.8990 N.am         1 NAD402   0.0000
    42 C4N         -1.0880    -6.7210     3.5320 C.ar         1 NAD402   0.0000
    43 C5N         -1.3830    -8.0790     3.7770 C.ar         1 NAD402   0.0000
    44 C6N         -0.3740    -8.9170     4.2930 C.ar         1 NAD402   0.0000
    45 H5B1         3.4140   -17.2909     5.0562 H            1 NAD402   0.0000
    46 H5B2         4.0635   -15.8308     4.7204 H            1 NAD402   0.0000
    47 H4B          5.1512   -17.1390     2.7935 H            1 NAD402   0.0000
    48 H3B          4.1104   -19.1763     4.3743 H            1 NAD402   0.0000
    49 H5           5.6538   -19.3132     2.0128 H            1 NAD402   0.0000
    50 H2B          5.9695   -19.4695     5.5868 H            1 NAD402   0.0000
    51 H7           7.3921   -20.4109     3.4004 H            1 NAD402   0.0000
    52 H1B          7.5854   -18.1953     3.5357 H            1 NAD402   0.0000
    53 H8A          7.0293   -18.1625     7.2966 H            1 NAD402   0.0000
    54 H6A1        13.1375   -17.7735     7.9956 H            1 NAD402   0.0000
    55 H6A2        11.5965   -17.8447     8.7831 H            1 NAD402   0.0000
    56 H2A         12.2325   -17.8490     3.5473 H            1 NAD402   0.0000
    57 H5D1         2.2631   -12.1345     3.0442 H            1 NAD402   0.0000
    58 H5D2         3.8504   -12.5060     3.1404 H            1 NAD402   0.0000
    59 H4D          4.1999   -11.0937     4.8209 H            1 NAD402   0.0000
    60 H3D          2.1163   -12.3749     6.0501 H            1 NAD402   0.0000
    61 H17          2.9596   -11.4556     7.9818 H            1 NAD402   0.0000
    62 H2D          0.5622   -10.8011     5.6318 H            1 NAD402   0.0000
    63 H19          0.3433    -9.3043     7.3555 H            1 NAD402   0.0000
    64 H1D          2.5731    -8.7260     5.6739 H            1 NAD402   0.0000
    65 H2N          2.1154    -6.8246     4.5189 H            1 NAD402   0.0000
    66 H7N1         2.0702    -3.3913     3.7596 H            1 NAD402   0.0000
    67 H7N2         2.5180    -4.9892     4.2559 H            1 NAD402   0.0000
    68 H4N         -1.7895    -6.1083     3.1681 H            1 NAD402   0.0000
    69 H5N         -2.2953    -8.4418     3.5871 H            1 NAD402   0.0000
    70 H6N         -0.5744    -9.8804     4.4709 H            1 NAD402   0.0000
@<TRIPOS>BOND
     1    1    2      ar
     2    1    3      ar
     3    1    4       1
     4    1   23       1
     5    4    5       1
     6    5    6       1
     7    6    7       1
     8    6    8       1
     9    7   12       1
    10    8    9       1
    11    8   10       1
    12   10   11       1
    13   10   12       1
    14   12   13       1
    15   13   14       1
    16   13   22       1
    17   14   15       2
    18   15   16       1
    19   16   17      ar
    20   16   22      ar
    21   17   18       1
    22   17   19      ar
    23   19   20      ar
    24   20   21      ar
    25   21   22      ar
    26   23   24       1
    27   24   25      ar
    28   24   26      ar
    29   24   27       1
    30   27   28       1
    31   28   29       1
    32   29   30       1
    33   29   31       1
    34   30   35       1
    35   31   32       1
    36   31   33       1
    37   33   34       1
    38   33   35       1
    39   35   36       1
    40   36   37      ar
    41   36   44      ar
    42   37   38      ar
    43   38   39       1
    44   38   42      ar
    45   39   40       2
    46   39   41      am
    47   42   43      ar
    48   43   44      ar
    49   44   70       1
    50    5   45       1
    51    5   46       1
    52    6   47       1
    53    8   48       1
    54    9   49       1
    55   10   50       1
    56   11   51       1
    57   12   52       1
    58   14   53       1
    59   18   54       1
    60   18   55       1
    61   20   56       1
    62   43   69       1
    63   28   57       1
    64   28   58       1
    65   29   59       1
    66   31   60       1
    67   32   61       1
    68   33   62       1
    69   34   63       1
    70   35   64       1
    71   37   65       1
    72   41   66       1
    73   41   67       1
    74   42   68       1
@<TRIPOS>SUBSTRUCTURE
     1 NAD402      1 GROUP             4 D     NAD     0 **** NAD D 402
