@<TRIPOS>MOLECULE
4czt_CPS_3_ligand
  100   103     1     0     0
SMALL
NO_CHARGES


@<TRIPOS>ATOM
     1 C1         -15.1800    17.4010    11.0340 C.3          1 CPS1314   0.0000
     2 C2         -16.3270    17.9310    11.9160 C.3          1 CPS1314   0.0000
     3 C3         -15.6840    16.3760    13.8730 C.3          1 CPS1314   0.0000
     4 C4         -16.1110    15.4210    14.9860 C.3          1 CPS1314   0.0000
     5 C5         -17.2780    16.0000    15.8120 C.3          1 CPS1314   0.0000
     6 C6         -18.4100    16.3640    14.8190 C.3          1 CPS1314   0.0000
     7 C7         -19.6020    16.6620    15.7310 C.3          1 CPS1314   0.0000
     8 C8         -19.4240    15.7020    16.9220 C.3          1 CPS1314   0.0000
     9 C9         -18.0410    15.0360    16.7630 C.3          1 CPS1314   0.0000
    10 C10        -16.7860    17.2420    16.5750 C.3          1 CPS1314   0.0000
    11 C11        -15.8020    19.1790    12.6450 C.3          1 CPS1314   0.0000
    12 C12        -15.5910    16.2740    10.0850 C.3          1 CPS1314   0.0000
    13 C13        -16.7190    16.7250     9.1850 C.3          1 CPS1314   0.0000
    14 C14        -17.8960    17.2010    10.0120 C.3          1 CPS1314   0.0000
    15 C15        -17.5170    18.3140    10.9970 C.3          1 CPS1314   0.0000
    16 C16        -18.7400    18.7880    11.7910 C.3          1 CPS1314   0.0000
    17 C17        -19.1870    17.8290    12.8860 C.3          1 CPS1314   0.0000
    18 C18        -18.0070    17.3960    13.7650 C.3          1 CPS1314   0.0000
    19 C19        -16.8110    16.8720    12.9480 C.3          1 CPS1314   0.0000
    20 C20        -17.4170    14.6690    18.1240 C.3          1 CPS1314   0.0000
    21 C21        -16.1240    13.8660    18.0090 C.3          1 CPS1314   0.0000
    22 C22        -18.4200    13.9280    19.0210 C.3          1 CPS1314   0.0000
    23 C23        -18.7400    14.6540    20.3300 C.3          1 CPS1314   0.0000
    24 C24        -18.7570    13.6910    21.4910 C.2          1 CPS1314   0.0000
    25 C25        -20.1240    12.0890    22.7590 C.3          1 CPS1314   0.0000
    26 C26        -19.9150    12.4870    24.2100 C.3          1 CPS1314   0.0000
    27 C27        -19.5860    11.3560    25.1720 C.3          1 CPS1314   0.0000
    28 C28        -17.2160    11.2280    24.5360 C.3          1 CPS1314   0.0000
    29 C29        -17.8880    12.6390    26.4070 C.3          1 CPS1314   0.0000
    30 C30        -17.9230    10.1910    26.6580 C.3          1 CPS1314   0.0000
    31 C31        -17.7310     8.8250    26.0170 C.3          1 CPS1314   0.0000
    32 C32        -16.3750     8.1970    26.3110 C.3          1 CPS1314   0.0000
    33 N1         -19.9490    13.1980    21.8290 N.am         1 CPS1314   0.0000
    34 N2         -18.1630    11.3410    25.6980 N.4          1 CPS1314   1.0000
    35 O1         -17.7170    13.3720    22.0620 O.2          1 CPS1314   0.0000
    36 O2         -17.1320    15.6610     8.3170 O.3          1 CPS1314   0.0000
    37 O3         -19.8940    16.7240    12.3190 O.3          1 CPS1314   0.0000
    38 O4         -16.4460    14.1480    14.4340 O.3          1 CPS1314   0.0000
    39 O2S        -14.1710     7.9230    24.9710 O.co2        1 CPS1314   0.0000
    40 O3S        -15.7630     6.1040    24.9080 O.co2        1 CPS1314   0.0000
    41 O1S        -16.2280     8.1670    23.7230 O.co2        1 CPS1314  -1.0000
    42 S          -15.5720     7.5460    24.8640 S.o2         1 CPS1314   0.0000
    43 H1         -14.4559    17.0588    11.6328 H            1 CPS1314   0.0000
    44 H2         -14.8286    18.1602    10.4862 H            1 CPS1314   0.0000
    45 H3         -15.0073    15.9050    13.3071 H            1 CPS1314   0.0000
    46 H4         -15.2627    17.1762    14.2999 H            1 CPS1314   0.0000
    47 H5         -15.3317    15.2952    15.5999 H            1 CPS1314   0.0000
    48 H6         -18.6341    15.5247    14.3237 H            1 CPS1314   0.0000
    49 H7         -20.4638    16.4815    15.2570 H            1 CPS1314   0.0000
    50 H8         -19.5833    17.6136    16.0379 H            1 CPS1314   0.0000
    51 H9         -20.1428    15.0069    16.9130 H            1 CPS1314   0.0000
    52 H10        -19.4631    16.2109    17.7819 H            1 CPS1314   0.0000
    53 H11        -18.1819    14.1810    16.2639 H            1 CPS1314   0.0000
    54 H12        -17.5383    17.6225    17.1129 H            1 CPS1314   0.0000
    55 H13        -16.0373    16.9833    17.1854 H            1 CPS1314   0.0000
    56 H14        -16.4626    17.9275    15.9227 H            1 CPS1314   0.0000
    57 H15        -16.5229    19.5516    13.2294 H            1 CPS1314   0.0000
    58 H16        -15.0131    18.9297    13.2067 H            1 CPS1314   0.0000
    59 H17        -15.5286    19.8672    11.9730 H            1 CPS1314   0.0000
    60 H18        -15.8929    15.4858    10.6213 H            1 CPS1314   0.0000
    61 H19        -14.8056    16.0139     9.5233 H            1 CPS1314   0.0000
    62 H20        -16.3945    17.4866     8.6240 H            1 CPS1314   0.0000
    63 H21        -18.2577    16.4255    10.5295 H            1 CPS1314   0.0000
    64 H22        -18.6017    17.5475     9.3940 H            1 CPS1314   0.0000
    65 H23        -17.2143    19.0921    10.4466 H            1 CPS1314   0.0000
    66 H24        -19.4998    18.9101    11.1524 H            1 CPS1314   0.0000
    67 H25        -18.5169    19.6656    12.2153 H            1 CPS1314   0.0000
    68 H26        -19.8287    18.3241    13.4717 H            1 CPS1314   0.0000
    69 H27        -17.6932    18.2089    14.2556 H            1 CPS1314   0.0000
    70 H28        -17.1340    16.0812    12.4281 H            1 CPS1314   0.0000
    71 H29        -17.1898    15.5273    18.5840 H            1 CPS1314   0.0000
    72 H30        -15.7752    13.6631    18.9239 H            1 CPS1314   0.0000
    73 H31        -16.3050    13.0105    17.5239 H            1 CPS1314   0.0000
    74 H32        -15.4448    14.3984    17.5038 H            1 CPS1314   0.0000
    75 H33        -18.0390    13.0308    19.2442 H            1 CPS1314   0.0000
    76 H34        -19.2717    13.8108    18.5102 H            1 CPS1314   0.0000
    77 H35        -19.6373    15.0886    20.2522 H            1 CPS1314   0.0000
    78 H36        -18.0442    15.3531    20.4949 H            1 CPS1314   0.0000
    79 H37        -21.0528    11.7327    22.6577 H            1 CPS1314   0.0000
    80 H38        -19.4653    11.3731    22.5276 H            1 CPS1314   0.0000
    81 H39        -20.7541    12.9265    24.5304 H            1 CPS1314   0.0000
    82 H40        -19.1617    13.1439    24.2414 H            1 CPS1314   0.0000
    83 H41        -19.7486    10.4907    24.6978 H            1 CPS1314   0.0000
    84 H42        -20.2035    11.4280    25.9553 H            1 CPS1314   0.0000
    85 H43        -16.2746    11.2173    24.8730 H            1 CPS1314   0.0000
    86 H44        -17.4008    10.3817    24.0365 H            1 CPS1314   0.0000
    87 H45        -17.3427    12.0098    23.9255 H            1 CPS1314   0.0000
    88 H46        -16.9511    12.6359    26.7565 H            1 CPS1314   0.0000
    89 H47        -18.0027    13.3990    25.7673 H            1 CPS1314   0.0000
    90 H48        -18.5275    12.7449    27.1685 H            1 CPS1314   0.0000
    91 H49        -17.1011    10.3998    27.1880 H            1 CPS1314   0.0000
    92 H50        -18.7102    10.1342    27.2721 H            1 CPS1314   0.0000
    93 H51        -17.8247     8.9249    25.0264 H            1 CPS1314   0.0000
    94 H52        -18.4436     8.2125    26.3592 H            1 CPS1314   0.0000
    95 H53        -16.5057     7.4510    26.9640 H            1 CPS1314   0.0000
    96 H54        -15.7834     8.8944    26.7155 H            1 CPS1314   0.0000
    97 H55        -20.7649    13.6102    21.4237 H            1 CPS1314   0.0000
    98 H56        -16.3601    15.3755     7.7490 H            1 CPS1314   0.0000
    99 H57        -20.6992    17.0591    11.8298 H            1 CPS1314   0.0000
   100 H58        -17.4186    14.1307    14.2022 H            1 CPS1314   0.0000
@<TRIPOS>BOND
     1    1    2       1
     2    1   12       1
     3    2   11       1
     4    2   15       1
     5    2   19       1
     6    3    4       1
     7    3   19       1
     8    4    5       1
     9    4   38       1
    10    5    6       1
    11    5    9       1
    12    5   10       1
    13    6    7       1
    14    6   18       1
    15    7    8       1
    16    8    9       1
    17    9   20       1
    18   12   13       1
    19   13   14       1
    20   13   36       1
    21   14   15       1
    22   15   16       1
    23   16   17       1
    24   17   18       1
    25   17   37       1
    26   18   19       1
    27   20   21       1
    28   20   22       1
    29   22   23       1
    30   23   24       1
    31   24   33      am
    32   24   35       2
    33   25   26       1
    34   25   33       1
    35   26   27       1
    36   27   34       1
    37   28   34       1
    38   29   34       1
    39   30   31       1
    40   30   34       1
    41   31   32       1
    42   32   42       1
    43   39   42      ar
    44   40   42      ar
    45   41   42      ar
    46    1   43       1
    47    1   44       1
    48    3   45       1
    49    3   46       1
    50    4   47       1
    51    6   48       1
    52    7   49       1
    53    7   50       1
    54    8   51       1
    55    8   52       1
    56    9   53       1
    57   10   54       1
    58   10   55       1
    59   10   56       1
    60   11   57       1
    61   11   58       1
    62   11   59       1
    63   12   60       1
    64   12   61       1
    65   13   62       1
    66   14   63       1
    67   14   64       1
    68   15   65       1
    69   16   66       1
    70   16   67       1
    71   17   68       1
    72   18   69       1
    73   19   70       1
    74   20   71       1
    75   21   72       1
    76   21   73       1
    77   21   74       1
    78   22   75       1
    79   22   76       1
    80   23   77       1
    81   23   78       1
    82   25   79       1
    83   25   80       1
    84   26   81       1
    85   26   82       1
    86   27   83       1
    87   27   84       1
    88   28   85       1
    89   28   86       1
    90   28   87       1
    91   29   88       1
    92   29   89       1
    93   29   90       1
    94   30   91       1
    95   30   92       1
    96   31   93       1
    97   31   94       1
    98   32   95       1
    99   32   96       1
   100   33   97       1
   101   36   98       1
   102   37   99       1
   103   38  100       1
@<TRIPOS>SUBSTRUCTURE
     1 CPS1314     1 GROUP             4 C     CPS     0 **** CPS C1314
