@<TRIPOS>MOLECULE
2a8x_FAD_2_ligand
   84    89     1     0     0
SMALL
NO_CHARGES


@<TRIPOS>ATOM
     1 PA          15.0500    -2.4920    53.8970 P.3          1 FAD580   0.0000
     2 O1A         13.5990    -2.1670    53.9250 O.co2        1 FAD580   0.0000
     3 O2A         16.0460    -1.3960    53.6930 O.co2        1 FAD580  -1.0000
     4 O5B         15.3280    -3.2740    55.2450 O.3          1 FAD580   0.0000
     5 C5B         16.5950    -3.8100    55.6650 C.3          1 FAD580   0.0000
     6 C4B         16.4470    -4.0980    57.1680 C.3          1 FAD580   0.0000
     7 O4B         17.5280    -4.9930    57.5340 O.3          1 FAD580   0.0000
     8 C3B         16.5590    -2.8840    58.0910 C.3          1 FAD580   0.0000
     9 O3B         15.4220    -2.7050    58.8900 O.3          1 FAD580   0.0000
    10 C2B         17.8090    -3.1180    58.8950 C.3          1 FAD580   0.0000
    11 O2B         17.7780    -2.6340    60.2350 O.3          1 FAD580   0.0000
    12 C1B         18.0170    -4.6160    58.8190 C.3          1 FAD580   0.0000
    13 N9A         19.3970    -5.0770    58.8840 N.pl3        1 FAD580   0.0000
    14 C8A         20.4670    -4.6390    58.1460 C.2          1 FAD580   0.0000
    15 N7A         21.5940    -5.2590    58.4330 N.2          1 FAD580   0.0000
    16 C5A         21.2500    -6.1720    59.4220 C.ar         1 FAD580   0.0000
    17 C6A         22.0010    -7.1410    60.1640 C.ar         1 FAD580   0.0000
    18 N6A         23.3130    -7.3320    59.9660 N.pl3        1 FAD580   0.0000
    19 N1A         21.3570    -7.8900    61.0870 N.ar         1 FAD580   0.0000
    20 C2A         20.0060    -7.6880    61.2900 C.ar         1 FAD580   0.0000
    21 N3A         19.2120    -6.8080    60.6500 N.ar         1 FAD580   0.0000
    22 C4A         19.8990    -6.0520    59.7080 C.ar         1 FAD580   0.0000
    23 N1          10.2090     1.4940    47.0030 N.2          1 FAD580   0.0000
    24 C2           9.0690     1.2340    46.2790 C.2          1 FAD580   0.0000
    25 O2           8.8670     0.1170    45.7040 O.2          1 FAD580   0.0000
    26 N3           8.0780     2.2040    46.1290 N.pl3        1 FAD580   0.0000
    27 C4           8.1440     3.4720    46.7100 C.2          1 FAD580   0.0000
    28 O4           7.2030     4.2880    46.5280 O.2          1 FAD580   0.0000
    29 C4X          9.3160     3.7420    47.4860 C.2          1 FAD580   0.0000
    30 N5           9.4310     5.0050    48.1170 N.2          1 FAD580   0.0000
    31 C5X         10.5590     5.2440    48.8820 C.ar         1 FAD580   0.0000
    32 C6          10.6860     6.4990    49.5590 C.ar         1 FAD580   0.0000
    33 C7          11.7940     6.7960    50.3630 C.ar         1 FAD580   0.0000
    34 C7M         11.8440     8.1620    51.0630 C.3          1 FAD580   0.0000
    35 C8          12.8270     5.8330    50.5230 C.ar         1 FAD580   0.0000
    36 C8M         14.0500     6.0560    51.3670 C.3          1 FAD580   0.0000
    37 C9          12.7040     4.5820    49.8410 C.ar         1 FAD580   0.0000
    38 C9A         11.6170     4.2560    49.0340 C.ar         1 FAD580   0.0000
    39 N10         11.4890     2.9930    48.3720 N.pl3        1 FAD580   0.0000
    40 C10         10.3050     2.7100    47.5830 C.2          1 FAD580   0.0000
    41 C1'         12.5300     1.9430    48.4750 C.3          1 FAD580   0.0000
    42 C2'         12.1930     0.7960    49.4010 C.3          1 FAD580   0.0000
    43 O2'         11.9600     1.3280    50.7200 O.3          1 FAD580   0.0000
    44 C3'         13.3210    -0.2220    49.3980 C.3          1 FAD580   0.0000
    45 O3'         13.4780    -0.6790    48.0640 O.3          1 FAD580   0.0000
    46 C4'         12.9620    -1.3860    50.2960 C.3          1 FAD580   0.0000
    47 O4'         12.8100    -0.8890    51.6480 O.3          1 FAD580   0.0000
    48 C5'         14.0140    -2.4070    50.2990 C.3          1 FAD580   0.0000
    49 O5'         13.5340    -3.4790    51.1070 O.3          1 FAD580   0.0000
    50 P           14.5350    -4.4710    51.7650 P.3          1 FAD580   0.0000
    51 O1P         13.7380    -5.4720    52.4630 O.co2        1 FAD580   0.0000
    52 O2P         15.5000    -4.9150    50.6940 O.co2        1 FAD580  -1.0000
    53 O3P         15.3840    -3.6110    52.7990 O.3          1 FAD580   0.0000
    54 H5B1        17.3246    -3.1444    55.5077 H            1 FAD580   0.0000
    55 H5B2        16.7995    -4.6527    55.1670 H            1 FAD580   0.0000
    56 H4B         15.5725    -4.5550    57.3306 H            1 FAD580   0.0000
    57 H3B         16.6878    -2.0663    57.5300 H            1 FAD580   0.0000
    58 H5          15.2864    -3.5135    59.4627 H            1 FAD580   0.0000
    59 H2B         18.5702    -2.6743    58.4220 H            1 FAD580   0.0000
    60 H7          17.0350    -3.0805    60.7336 H            1 FAD580   0.0000
    61 H1B         17.4776    -5.0672    59.5300 H            1 FAD580   0.0000
    62 H8A         20.3985    -3.9182    57.4562 H            1 FAD580   0.0000
    63 H6A1        23.8050    -8.0176    60.5026 H            1 FAD580   0.0000
    64 H6A2        23.7997    -6.7889    59.2817 H            1 FAD580   0.0000
    65 H2A         19.5700    -8.2566    61.9876 H            1 FAD580   0.0000
    66 H13          7.2764     1.9790    45.5751 H            1 FAD580   0.0000
    67 H14          9.9636     7.1827    49.4551 H            1 FAD580   0.0000
    68 H7M1        12.6862     8.2319    51.5977 H            1 FAD580   0.0000
    69 H7M2        11.8234     8.8891    50.3768 H            1 FAD580   0.0000
    70 H7M3        11.0550     8.2544    51.6703 H            1 FAD580   0.0000
    71 H8M1        14.6336     5.2448    51.3291 H            1 FAD580   0.0000
    72 H8M2        14.5549     6.8464    51.0200 H            1 FAD580   0.0000
    73 H8M3        13.7755     6.2252    52.3136 H            1 FAD580   0.0000
    74 H21         13.4348     3.9080    49.9490 H            1 FAD580   0.0000
    75 H1'1        13.3709     2.3715    48.8056 H            1 FAD580   0.0000
    76 H1'2        12.6839     1.5683    47.5607 H            1 FAD580   0.0000
    77 H2'         11.3565     0.3536    49.0777 H            1 FAD580   0.0000
    78 H25         12.2156     0.6455    51.4047 H            1 FAD580   0.0000
    79 H3'         14.1678     0.2054    49.7147 H            1 FAD580   0.0000
    80 H27         14.4328    -0.9323    47.9086 H            1 FAD580   0.0000
    81 H4'         12.1013    -1.7926    49.9897 H            1 FAD580   0.0000
    82 H29         13.4664    -1.3472    52.2473 H            1 FAD580   0.0000
    83 H5'1        14.8571    -2.0334    50.6857 H            1 FAD580   0.0000
    84 H5'2        14.1876    -2.7271    49.3677 H            1 FAD580   0.0000
@<TRIPOS>BOND
     1    1    2      ar
     2    1    3      ar
     3    1    4       1
     4    1   53       1
     5    4    5       1
     6    5    6       1
     7    6    7       1
     8    6    8       1
     9    7   12       1
    10    8    9       1
    11    8   10       1
    12   10   11       1
    13   10   12       1
    14   12   13       1
    15   13   14       1
    16   13   22       1
    17   14   15       2
    18   15   16       1
    19   16   17      ar
    20   16   22      ar
    21   17   18       1
    22   17   19      ar
    23   19   20      ar
    24   20   21      ar
    25   21   22      ar
    26   23   24       1
    27   23   40       2
    28   24   25       2
    29   24   26       1
    30   26   27       1
    31   27   28       2
    32   27   29       1
    33   29   30       2
    34   29   40       1
    35   30   31       1
    36   31   32      ar
    37   31   38      ar
    38   32   33      ar
    39   33   34       1
    40   33   35      ar
    41   35   36       1
    42   35   37      ar
    43   37   38      ar
    44   38   39       1
    45   39   40       1
    46   39   41       1
    47   41   42       1
    48   42   43       1
    49   42   44       1
    50   44   45       1
    51   44   46       1
    52   46   47       1
    53   46   48       1
    54   48   49       1
    55   49   50       1
    56   50   51      ar
    57   50   52      ar
    58   50   53       1
    59   48   84       1
    60    5   54       1
    61    5   55       1
    62    6   56       1
    63    8   57       1
    64    9   58       1
    65   10   59       1
    66   11   60       1
    67   12   61       1
    68   14   62       1
    69   18   63       1
    70   18   64       1
    71   20   65       1
    72   26   66       1
    73   32   67       1
    74   34   68       1
    75   34   69       1
    76   34   70       1
    77   36   71       1
    78   36   72       1
    79   36   73       1
    80   37   74       1
    81   41   75       1
    82   41   76       1
    83   42   77       1
    84   43   78       1
    85   44   79       1
    86   45   80       1
    87   46   81       1
    88   47   82       1
    89   48   83       1
@<TRIPOS>SUBSTRUCTURE
     1 FAD580      1 GROUP             4 B     FAD     0 **** FAD B 580
