@<TRIPOS>MOLECULE
1rq9_DMQ_1_ligand
   76    80     1     0     0
SMALL
NO_CHARGES


@<TRIPOS>ATOM
     1 C1          39.0430    13.9150   -13.3840 C.2          1 DMQ111   0.0000
     2 O1          38.9630    14.8140   -14.2350 O.2          1 DMQ111   0.0000
     3 N2          40.2930    13.3090   -13.2290 N.am         1 DMQ111   0.0000
     4 C2          41.2790    13.2490   -14.4730 C.3          1 DMQ111   0.0000
     5 C3          40.8260    12.8470   -11.8240 C.3          1 DMQ111   0.0000
     6 C4          40.2840    13.4270   -10.4980 C.3          1 DMQ111   0.0000
     7 O4          41.0070    12.7250    -9.5250 O.3          1 DMQ111   0.0000
     8 C5          38.7770    13.2560   -10.2180 C.3          1 DMQ111   0.0000
     9 O5          38.5360    13.7820    -8.9380 O.3          1 DMQ111   0.0000
    10 C6          37.8290    14.0000   -11.1760 C.3          1 DMQ111   0.0000
    11 C7          36.7300    13.1030   -13.3300 C.3          1 DMQ111   0.0000
    12 N7          37.9380    13.6570   -12.6350 N.am         1 DMQ111   0.0000
    13 C20         40.8780    12.8950   -15.9440 C.ar         1 DMQ111   0.0000
    14 C21         39.6190    13.2960   -16.5340 C.ar         1 DMQ111   0.0000
    15 C22         39.2520    12.9880   -17.8760 C.ar         1 DMQ111   0.0000
    16 C23         40.1610    12.2600   -18.6790 C.ar         1 DMQ111   0.0000
    17 C28         41.4270    11.8400   -18.1470 C.ar         1 DMQ111   0.0000
    18 N29         42.3030    11.1150   -19.0010 N.pl3        1 DMQ111   0.0000
    19 C29         41.7930    12.1520   -16.7810 C.ar         1 DMQ111   0.0000
    20 C31         40.9330    11.2580   -11.6770 C.3          1 DMQ111   0.0000
    21 C32         40.5400    10.3900   -12.8540 C.ar         1 DMQ111   0.0000
    22 C33         41.5710     9.7330   -13.6360 C.ar         1 DMQ111   0.0000
    23 C34         41.2280     8.8970   -14.7330 C.ar         1 DMQ111   0.0000
    24 C35         39.8460     8.7140   -15.0560 C.ar         1 DMQ111   0.0000
    25 C36         38.7970     9.3570   -14.2940 C.ar         1 DMQ111   0.0000
    26 C37         39.1490    10.2010   -13.1860 C.ar         1 DMQ111   0.0000
    27 C61         37.9110    15.6050   -11.0820 C.3          1 DMQ111   0.0000
    28 C62         36.6310    16.3720   -10.6690 C.ar         1 DMQ111   0.0000
    29 C63         36.0620    16.2180    -9.3740 C.ar         1 DMQ111   0.0000
    30 C64         34.8630    16.9510    -9.0050 C.ar         1 DMQ111   0.0000
    31 C65         34.2440    17.8390    -9.9340 C.ar         1 DMQ111   0.0000
    32 C66         34.7990    18.0130   -11.2420 C.ar         1 DMQ111   0.0000
    33 C67         35.9950    17.2800   -11.6050 C.ar         1 DMQ111   0.0000
    34 C70         35.9030    14.0490   -14.2110 C.ar         1 DMQ111   0.0000
    35 C71         34.7900    14.7670   -13.6290 C.ar         1 DMQ111   0.0000
    36 C72         34.0070    15.6670   -14.4470 C.ar         1 DMQ111   0.0000
    37 N79         32.9030    16.3980   -13.8860 N.pl3        1 DMQ111   0.0000
    38 C77         34.3340    15.8390   -15.8340 C.ar         1 DMQ111   0.0000
    39 C78         35.4420    15.1310   -16.4350 C.ar         1 DMQ111   0.0000
    40 C79         36.2210    14.2370   -15.6180 C.ar         1 DMQ111   0.0000
    41 H1          41.9777    12.5789   -14.2225 H            1 DMQ111   0.0000
    42 H2          41.6924    14.1581   -14.5248 H            1 DMQ111   0.0000
    43 H3          41.7813    13.1426   -11.8314 H            1 DMQ111   0.0000
    44 H4          40.5192    14.3975   -10.4444 H            1 DMQ111   0.0000
    45 H5          40.7262    13.0313    -8.6154 H            1 DMQ111   0.0000
    46 H6          38.5502    12.2821   -10.2214 H            1 DMQ111   0.0000
    47 H7          37.5650    13.6899    -8.7172 H            1 DMQ111   0.0000
    48 H8          36.9008    13.7512   -10.8993 H            1 DMQ111   0.0000
    49 H9          36.1191    12.7459   -12.6234 H            1 DMQ111   0.0000
    50 H10         37.0413    12.3519   -13.9122 H            1 DMQ111   0.0000
    51 H11         38.9747    13.8149   -15.9722 H            1 DMQ111   0.0000
    52 H12         38.3691    13.2808   -18.2430 H            1 DMQ111   0.0000
    53 H13         39.9204    12.0363   -19.6235 H            1 DMQ111   0.0000
    54 H14         43.1920    10.8081   -18.6612 H            1 DMQ111   0.0000
    55 H15         42.0300    10.9121   -19.9414 H            1 DMQ111   0.0000
    56 H16         42.6759    11.8544   -16.4179 H            1 DMQ111   0.0000
    57 H17         40.3499    10.9937   -10.9088 H            1 DMQ111   0.0000
    58 H18         41.8860    11.0461   -11.4604 H            1 DMQ111   0.0000
    59 H19         42.5332     9.8700   -13.4004 H            1 DMQ111   0.0000
    60 H20         41.9401     8.4445   -15.2698 H            1 DMQ111   0.0000
    61 H21         39.5990     8.1274   -15.8273 H            1 DMQ111   0.0000
    62 H22         37.8372     9.2153   -14.5362 H            1 DMQ111   0.0000
    63 H23         38.4363    10.6533   -12.6498 H            1 DMQ111   0.0000
    64 H24         38.1830    15.9427   -11.9831 H            1 DMQ111   0.0000
    65 H25         38.6208    15.8285   -10.4140 H            1 DMQ111   0.0000
    66 H26         36.4901    15.6012    -8.7135 H            1 DMQ111   0.0000
    67 H27         34.4691    16.8322    -8.0936 H            1 DMQ111   0.0000
    68 H28         33.4203    18.3412    -9.6709 H            1 DMQ111   0.0000
    69 H29         34.3667    18.6327   -11.8970 H            1 DMQ111   0.0000
    70 H30         36.3887    17.4020   -12.5161 H            1 DMQ111   0.0000
    71 H31         34.5625    14.6414   -12.6634 H            1 DMQ111   0.0000
    72 H32         32.3692    17.0173   -14.4618 H            1 DMQ111   0.0000
    73 H33         32.6691    16.2871   -12.9201 H            1 DMQ111   0.0000
    74 H34         33.7857    16.4596   -16.3946 H            1 DMQ111   0.0000
    75 H35         35.6636    15.2599   -17.4016 H            1 DMQ111   0.0000
    76 H36         36.9889    13.7400   -16.0222 H            1 DMQ111   0.0000
@<TRIPOS>BOND
     1    1    2       2
     2    1    3      am
     3    1   12      am
     4    3    4       1
     5    3    5       1
     6    4   13       1
     7    5    6       1
     8    5   20       1
     9    6    7       1
    10    6    8       1
    11    8    9       1
    12    8   10       1
    13   10   12       1
    14   10   27       1
    15   11   12       1
    16   11   34       1
    17   13   14      ar
    18   13   19      ar
    19   14   15      ar
    20   15   16      ar
    21   16   17      ar
    22   17   18       1
    23   17   19      ar
    24   20   21       1
    25   21   22      ar
    26   21   26      ar
    27   22   23      ar
    28   23   24      ar
    29   24   25      ar
    30   25   26      ar
    31   27   28       1
    32   28   29      ar
    33   28   33      ar
    34   29   30      ar
    35   30   31      ar
    36   31   32      ar
    37   32   33      ar
    38   34   35      ar
    39   34   40      ar
    40   35   36      ar
    41   36   37       1
    42   36   38      ar
    43   38   39      ar
    44   39   40      ar
    45    4   41       1
    46    4   42       1
    47    5   43       1
    48    6   44       1
    49    7   45       1
    50    8   46       1
    51    9   47       1
    52   10   48       1
    53   11   49       1
    54   11   50       1
    55   14   51       1
    56   15   52       1
    57   16   53       1
    58   18   54       1
    59   18   55       1
    60   19   56       1
    61   20   57       1
    62   20   58       1
    63   22   59       1
    64   23   60       1
    65   24   61       1
    66   25   62       1
    67   26   63       1
    68   27   64       1
    69   27   65       1
    70   29   66       1
    71   30   67       1
    72   31   68       1
    73   32   69       1
    74   33   70       1
    75   35   71       1
    76   37   72       1
    77   37   73       1
    78   38   74       1
    79   39   75       1
    80   40   76       1
@<TRIPOS>SUBSTRUCTURE
     1 DMQ111      1 GROUP             4 B     DMQ     0 **** DMQ B 111
