@<TRIPOS>MOLECULE
2af3_COA_1_ligand
   80    82     1     0     0
SMALL
NO_CHARGES


@<TRIPOS>ATOM
     1 N1A         26.8110    42.0370    -7.7550 N.ar         1 COA501   0.0000
     2 C2A         26.9300    42.6160    -9.0020 C.ar         1 COA501   0.0000
     3 N3A         25.8350    43.2340    -9.5750 N.ar         1 COA501   0.0000
     4 C4A         24.6480    43.2580    -8.9210 C.ar         1 COA501   0.0000
     5 C5A         24.5050    42.6780    -7.6720 C.ar         1 COA501   0.0000
     6 C6A         25.6010    42.0590    -7.0870 C.ar         1 COA501   0.0000
     7 N6A         25.5010    41.5940    -5.8460 N.pl3        1 COA501   0.0000
     8 N7A         23.2260    42.8490    -7.2600 N.2          1 COA501   0.0000
     9 C8A         22.5590    43.5270    -8.2020 C.2          1 COA501   0.0000
    10 N9A         23.4300    43.7910    -9.2340 N.pl3        1 COA501   0.0000
    11 C1B         23.1080    44.5090   -10.4790 C.3          1 COA501   0.0000
    12 C2B         21.5890    44.6100   -10.6100 C.3          1 COA501   0.0000
    13 O2B         21.0900    43.6540   -11.5330 O.3          1 COA501   0.0000
    14 C3B         21.3180    46.0570   -10.9950 C.3          1 COA501   0.0000
    15 O3B         20.8890    46.2510   -12.3440 O.3          1 COA501   0.0000
    16 P3B         21.3100    45.3790   -13.6710 P.3          1 COA501   0.0000
    17 O7A         20.2180    44.3490   -13.9740 O.co2        1 COA501   0.0000
    18 O8A         22.6150    44.6220   -13.4470 O.co2        1 COA501  -1.0000
    19 O9A         21.4340    46.3400   -14.8540 O.co2        1 COA501  -1.0000
    20 C4B         22.6420    46.7700   -10.7260 C.3          1 COA501   0.0000
    21 O4B         23.6450    45.8120   -10.4420 O.3          1 COA501   0.0000
    22 C5B         22.5620    47.7720    -9.5780 C.3          1 COA501   0.0000
    23 O5B         23.7670    48.5210    -9.5880 O.3          1 COA501   0.0000
    24 P1A         23.8390    49.9800   -10.2650 P.3          1 COA501   0.0000
    25 O1A         23.0360    51.0100    -9.5030 O.co2        1 COA501   0.0000
    26 O2A         25.2710    50.3760   -10.5170 O.co2        1 COA501  -1.0000
    27 O3A         23.0710    49.6920   -11.6650 O.3          1 COA501   0.0000
    28 P2A         23.3780    50.5250   -13.0210 P.3          1 COA501   0.0000
    29 O4A         22.3400    50.0910   -14.0330 O.co2        1 COA501   0.0000
    30 O5A         23.2430    51.9940   -12.7540 O.co2        1 COA501  -1.0000
    31 O6A         24.8500    50.0540   -13.4910 O.3          1 COA501   0.0000
    32 CBP         27.1750    50.4680   -14.0730 C.3          1 COA501   0.0000
    33 CCP         25.7170    50.9320   -14.1650 C.3          1 COA501   0.0000
    34 CDP         27.2980    48.9870   -14.4760 C.3          1 COA501   0.0000
    35 CEP         27.9940    51.3150   -15.0600 C.3          1 COA501   0.0000
    36 CAP         27.6140    50.6570   -12.6030 C.3          1 COA501   0.0000
    37 OAP         27.5770    49.4660   -11.8360 O.3          1 COA501   0.0000
    38 C9P         28.8200    51.5390   -12.3510 C.2          1 COA501   0.0000
    39 O9P         28.6310    52.9300   -12.1780 O.2          1 COA501   0.0000
    40 N8P         30.0240    50.9660   -12.3100 N.am         1 COA501   0.0000
    41 C7P         31.1250    51.5030   -13.0980 C.3          1 COA501   0.0000
    42 C6P         32.1740    50.4570   -13.4890 C.3          1 COA501   0.0000
    43 C5P         32.4820    49.5730   -12.3020 C.2          1 COA501   0.0000
    44 O5P         32.2340    49.9560   -11.1430 O.2          1 COA501   0.0000
    45 N4P         32.9980    48.3800   -12.5830 N.am         1 COA501   0.0000
    46 C3P         32.1560    47.1940   -12.5700 C.3          1 COA501   0.0000
    47 C2P         32.9050    45.9530   -13.0430 C.3          1 COA501   0.0000
    48 S1P         32.0110    45.0510   -14.3270 S.3          1 COA501   0.0000
    49 H2A         27.8035    42.5885    -9.4880 H            1 COA501   0.0000
    50 H6A1        24.6199    41.6155    -5.3735 H            1 COA501   0.0000
    51 H6A2        26.3068    41.2226    -5.3848 H            1 COA501   0.0000
    52 H8A         21.5963    43.7947    -8.1626 H            1 COA501   0.0000
    53 H1B         23.4821    44.0118   -11.2619 H            1 COA501   0.0000
    54 H2B         21.1785    44.4350    -9.7151 H            1 COA501   0.0000
    55 H7          21.8496    43.1171   -11.9002 H            1 COA501   0.0000
    56 H3B         20.6223    46.4283   -10.3800 H            1 COA501   0.0000
    57 H4B         22.9060    47.2636   -11.5547 H            1 COA501   0.0000
    58 H5B1        22.4665    47.2887    -8.7078 H            1 COA501   0.0000
    59 H5B2        21.7795    48.3807    -9.7088 H            1 COA501   0.0000
    60 HCP1        25.6396    51.8414   -13.7564 H            1 COA501   0.0000
    61 HCP2        25.4506    50.9754   -15.1279 H            1 COA501   0.0000
    62 HDP1        28.2542    48.7019   -14.4102 H            1 COA501   0.0000
    63 HDP2        26.7404    48.4273   -13.8630 H            1 COA501   0.0000
    64 HDP3        26.9793    48.8699   -15.4166 H            1 COA501   0.0000
    65 HEP1        28.9533    51.0351   -15.0233 H            1 COA501   0.0000
    66 HEP2        27.6426    51.1800   -15.9865 H            1 COA501   0.0000
    67 HEP3        27.9189    52.2810   -14.8124 H            1 COA501   0.0000
    68 HAP         26.8637    51.1927   -12.2155 H            1 COA501   0.0000
    69 H21         26.9474    49.5835   -11.0680 H            1 COA501   0.0000
    70 H8P         30.1717    50.1620   -11.7341 H            1 COA501   0.0000
    71 H7P1        31.5763    52.2174   -12.5632 H            1 COA501   0.0000
    72 H7P2        30.7490    51.9005   -13.9350 H            1 COA501   0.0000
    73 H6P1        33.0100    50.9194   -13.7845 H            1 COA501   0.0000
    74 H6P2        31.8208    49.8963   -14.2379 H            1 COA501   0.0000
    75 H4P         33.9697    48.2979   -12.8043 H            1 COA501   0.0000
    76 H3P1        31.3734    47.3476   -13.1733 H            1 COA501   0.0000
    77 H3P2        31.8321    47.0388   -11.6367 H            1 COA501   0.0000
    78 H2P1        33.0433    45.3448   -12.2613 H            1 COA501   0.0000
    79 H2P2        33.7927    46.2341   -13.4078 H            1 COA501   0.0000
    80 H1P         32.5416    44.2492   -14.6021 H            1 COA501   0.0000
@<TRIPOS>BOND
     1    1    2      ar
     2    1    6      ar
     3    2    3      ar
     4    3    4      ar
     5    4    5      ar
     6    4   10       1
     7    5    6      ar
     8    5    8       1
     9    6    7       1
    10    8    9       2
    11    9   10       1
    12   10   11       1
    13   11   12       1
    14   11   21       1
    15   12   13       1
    16   12   14       1
    17   14   15       1
    18   14   20       1
    19   15   16       1
    20   16   17      ar
    21   16   18      ar
    22   16   19      ar
    23   20   21       1
    24   20   22       1
    25   22   23       1
    26   23   24       1
    27   24   25      ar
    28   24   26      ar
    29   24   27       1
    30   27   28       1
    31   28   29      ar
    32   28   30      ar
    33   28   31       1
    34   31   33       1
    35   32   33       1
    36   32   34       1
    37   32   35       1
    38   32   36       1
    39   36   37       1
    40   36   38       1
    41   38   39       2
    42   38   40      am
    43   40   41       1
    44   41   42       1
    45   42   43       1
    46   43   44       2
    47   43   45      am
    48   45   46       1
    49   46   47       1
    50   47   48       1
    51    2   49       1
    52    7   50       1
    53    7   51       1
    54    9   52       1
    55   11   53       1
    56   12   54       1
    57   13   55       1
    58   14   56       1
    59   48   80       1
    60   47   79       1
    61   20   57       1
    62   22   58       1
    63   22   59       1
    64   47   78       1
    65   46   77       1
    66   33   60       1
    67   33   61       1
    68   34   62       1
    69   34   63       1
    70   34   64       1
    71   35   65       1
    72   35   66       1
    73   35   67       1
    74   36   68       1
    75   37   69       1
    76   40   70       1
    77   41   71       1
    78   41   72       1
    79   42   73       1
    80   42   74       1
    81   45   75       1
    82   46   76       1
@<TRIPOS>SUBSTRUCTURE
     1 COA501      1 GROUP             4 C     COA     0 **** COA C 501
