@<TRIPOS>MOLECULE
3zxs_DLZ_3_ligand
   41    42     1     0     0
SMALL
NO_CHARGES


@<TRIPOS>ATOM
     1 C7           4.4950    14.8470   299.9300 C.3          1 DLZ1511   0.0000
     2 C7A          4.6390    15.5510   301.2530 C.2          1 DLZ1511   0.0000
     3 C5A          5.2200    14.8830   302.3170 C.2          1 DLZ1511   0.0000
     4 C6           5.6910    13.4570   302.1850 C.3          1 DLZ1511   0.0000
     5 N5           5.3280    15.5240   303.4830 N.2          1 DLZ1511   0.0000
     6 C4A          4.8930    16.7970   303.6190 C.2          1 DLZ1511   0.0000
     7 C4           5.0060    17.4770   304.8280 C.2          1 DLZ1511   0.0000
     8 O4           5.4810    16.9450   305.8520 O.2          1 DLZ1511   0.0000
     9 N3           4.5950    18.7540   304.9250 N.pl3        1 DLZ1511   0.0000
    10 C2           4.0900    19.3910   303.8780 C.2          1 DLZ1511   0.0000
    11 O2           3.7320    20.5460   304.1050 O.2          1 DLZ1511   0.0000
    12 N1           3.9480    18.7820   302.6720 N.2          1 DLZ1511   0.0000
    13 C8           4.3440    17.4800   302.5410 C.2          1 DLZ1511   0.0000
    14 N8           4.2260    16.8230   301.3870 N.pl3        1 DLZ1511   0.0000
    15 C1'          3.6280    17.5250   300.2700 C.3          1 DLZ1511   0.0000
    16 C2'          2.1200    17.7340   300.5620 C.3          1 DLZ1511   0.0000
    17 O2'          1.5640    16.4380   300.8660 O.3          1 DLZ1511   0.0000
    18 C3'          1.4800    18.5220   299.3680 C.3          1 DLZ1511   0.0000
    19 O3'          0.8920    19.8260   299.5990 O.3          1 DLZ1511   0.0000
    20 C4'          0.4010    17.7300   298.7280 C.3          1 DLZ1511   0.0000
    21 O4'          0.8730    16.3410   298.7160 O.3          1 DLZ1511   0.0000
    22 C5'          0.1480    18.4400   297.3630 C.3          1 DLZ1511   0.0000
    23 O5'         -0.0090    19.8910   297.3560 O.3          1 DLZ1511   0.0000
    24 H1           4.0598    15.4609   299.2714 H            1 DLZ1511   0.0000
    25 H2           5.3986    14.5829   299.5929 H            1 DLZ1511   0.0000
    26 H3           3.9309    14.0296   300.0470 H            1 DLZ1511   0.0000
    27 H4           6.0791    13.1523   303.0548 H            1 DLZ1511   0.0000
    28 H5           4.9176    12.8717   301.9418 H            1 DLZ1511   0.0000
    29 H6           6.3888    13.4012   301.4709 H            1 DLZ1511   0.0000
    30 H7           4.6716    19.2304   305.8009 H            1 DLZ1511   0.0000
    31 H1'1         3.7372    16.9844   299.4358 H            1 DLZ1511   0.0000
    32 H1'2         4.0739    18.4124   300.1529 H            1 DLZ1511   0.0000
    33 H2'          2.0417    18.3016   301.3816 H            1 DLZ1511   0.0000
    34 H11          0.7987    16.5442   301.5009 H            1 DLZ1511   0.0000
    35 H3'          2.1974    18.6438   298.6821 H            1 DLZ1511   0.0000
    36 H13          0.5321    20.1865   298.7385 H            1 DLZ1511   0.0000
    37 H4'         -0.4258    17.7905   299.2872 H            1 DLZ1511   0.0000
    38 H15          1.4749    16.1867   299.4995 H            1 DLZ1511   0.0000
    39 H5'1        -0.6880    18.0500   296.9770 H            1 DLZ1511   0.0000
    40 H5'2         0.9224    18.2232   296.7686 H            1 DLZ1511   0.0000
    41 H5'          0.7008    20.3003   296.7827 H            1 DLZ1511   0.0000
@<TRIPOS>BOND
     1    1    2       1
     2    2    3       2
     3    2   14       1
     4    3    4       1
     5    3    5       1
     6    5    6       2
     7    6    7       1
     8    6   13       1
     9    7    8       2
    10    7    9       1
    11    9   10       1
    12   10   11       2
    13   10   12       1
    14   12   13       2
    15   13   14       1
    16   14   15       1
    17   15   16       1
    18   16   17       1
    19   16   18       1
    20   18   19       1
    21   18   20       1
    22   20   21       1
    23   20   22       1
    24   22   23       1
    25    1   24       1
    26    1   25       1
    27    1   26       1
    28    4   27       1
    29    4   28       1
    30    4   29       1
    31    9   30       1
    32   15   31       1
    33   15   32       1
    34   16   33       1
    35   17   34       1
    36   18   35       1
    37   19   36       1
    38   20   37       1
    39   21   38       1
    40   22   39       1
    41   22   40       1
    42   23   41       1
@<TRIPOS>SUBSTRUCTURE
     1 DLZ1511     1 GROUP             4 C     DLZ     0 **** DLZ C1511
