@<TRIPOS>MOLECULE
3i6i_NDP_1_ligand
   74    78     1     0     0
SMALL
NO_CHARGES


@<TRIPOS>ATOM
     1 PA           1.1400     7.4950    21.0860 P.3          1 NDP350   0.0000
     2 O1A          0.0770     8.5170    20.7640 O.co2        1 NDP350   0.0000
     3 O2A          0.7400     6.2650    22.0970 O.co2        1 NDP350  -1.0000
     4 O5B          2.4930     8.1050    21.7080 O.3          1 NDP350   0.0000
     5 C5B          3.0810     9.2250    21.1240 C.3          1 NDP350   0.0000
     6 C4B          4.1750     9.7620    21.9650 C.3          1 NDP350   0.0000
     7 O4B          4.6780    10.8870    21.1450 O.3          1 NDP350   0.0000
     8 C3B          3.6580    10.3770    23.2910 C.3          1 NDP350   0.0000
     9 O3B          4.6220    10.2170    24.3660 O.3          1 NDP350   0.0000
    10 C2B          3.5040    11.8570    22.9480 C.3          1 NDP350   0.0000
    11 O2B          3.6560    12.6480    24.1270 O.3          1 NDP350   0.0000
    12 C1B          4.7310    12.0470    22.0600 C.3          1 NDP350   0.0000
    13 N9A          4.7400    13.2440    21.2190 N.pl3        1 NDP350   0.0000
    14 C8A          3.8390    13.5390    20.2820 C.2          1 NDP350   0.0000
    15 N7A          4.1850    14.6870    19.6950 N.2          1 NDP350   0.0000
    16 C5A          5.3230    15.1160    20.2500 C.ar         1 NDP350   0.0000
    17 C6A          6.1330    16.2350    20.0470 C.ar         1 NDP350   0.0000
    18 N6A          5.8230    17.1380    19.1140 N.pl3        1 NDP350   0.0000
    19 N1A          7.2390    16.3830    20.8030 N.ar         1 NDP350   0.0000
    20 C2A          7.5620    15.4680    21.7150 C.ar         1 NDP350   0.0000
    21 N3A          6.8200    14.3740    21.9300 N.ar         1 NDP350   0.0000
    22 C4A          5.6880    14.1920    21.2130 C.ar         1 NDP350   0.0000
    23 O3           1.6040     6.8310    19.7060 O.3          1 NDP350   0.0000
    24 PN           1.6860     5.2570    19.2680 P.3          1 NDP350   0.0000
    25 O1N          2.5000     4.3430    20.1030 O.co2        1 NDP350   0.0000
    26 O2N          0.1850     4.8780    18.9840 O.co2        1 NDP350  -1.0000
    27 O5D          2.3140     5.4790    17.7640 O.3          1 NDP350   0.0000
    28 C5D          3.7360     5.5450    17.5830 C.3          1 NDP350   0.0000
    29 C4D          4.0750     5.0590    16.2020 C.3          1 NDP350   0.0000
    30 O4D          3.7880     3.6340    16.2580 O.3          1 NDP350   0.0000
    31 C3D          3.2420     5.6370    15.0850 C.3          1 NDP350   0.0000
    32 O3D          4.0570     5.7370    13.9210 O.3          1 NDP350   0.0000
    33 C2D          2.2030     4.5550    14.8570 C.3          1 NDP350   0.0000
    34 O2D          1.8590     4.5700    13.4860 O.3          1 NDP350   0.0000
    35 C1D          2.9730     3.2700    15.1520 C.3          1 NDP350   0.0000
    36 N1N          2.1680     2.1490    15.7580 N.pl3        1 NDP350   0.0000
    37 C2N          2.3220     0.8090    15.3260 C.2          1 NDP350   0.0000
    38 C3N          1.3800    -0.0930    15.5930 C.2          1 NDP350   0.0000
    39 C7N          1.5740    -1.5540    15.1440 C.2          1 NDP350   0.0000
    40 O7N          0.7299    -2.4166    15.4124 O.2          1 NDP350   0.0000
    41 N7N          2.7164    -1.8354    14.5405 N.am         1 NDP350   0.0000
    42 C4N          0.1170     0.3350    16.3570 C.3          1 NDP350   0.0000
    43 C5N          0.3820     1.5740    17.2050 C.2          1 NDP350   0.0000
    44 C6N          1.4020     2.3770    16.9320 C.2          1 NDP350   0.0000
    45 P2B          2.3190    13.4870    24.6990 P.3          1 NDP350   0.0000
    46 O1X          1.3090    12.5230    25.2090 O.co2        1 NDP350   0.0000
    47 O2X          2.9500    14.4900    25.7590 O.co2        1 NDP350  -1.0000
    48 O3X          1.7760    14.3340    23.4770 O.co2        1 NDP350  -1.0000
    49 H5B1         2.3849     9.9330    21.0049 H            1 NDP350   0.0000
    50 H5B2         3.4525     8.9692    20.2315 H            1 NDP350   0.0000
    51 H4B          4.8855     9.0774    22.1279 H            1 NDP350   0.0000
    52 H3B          2.7763     9.9794    23.5449 H            1 NDP350   0.0000
    53 H5           4.1395    10.1514    25.2394 H            1 NDP350   0.0000
    54 H2B          2.6497    12.0505    22.4656 H            1 NDP350   0.0000
    55 H1B          5.5635    12.0100    22.6128 H            1 NDP350   0.0000
    56 H8A          3.0346    12.9897    20.0556 H            1 NDP350   0.0000
    57 H6A1         6.4095    17.9361    18.9762 H            1 NDP350   0.0000
    58 H6A2         5.0043    17.0163    18.5529 H            1 NDP350   0.0000
    59 H2A          8.3897    15.6028    22.2598 H            1 NDP350   0.0000
    60 H5D1         4.1879     4.9670    18.2624 H            1 NDP350   0.0000
    61 H5D2         4.0445     6.4900    17.6912 H            1 NDP350   0.0000
    62 H4D          5.0465     5.2057    16.0161 H            1 NDP350   0.0000
    63 H3D          2.8287     6.5127    15.3346 H            1 NDP350   0.0000
    64 H16          4.8366     6.3340    14.1102 H            1 NDP350   0.0000
    65 H2D          1.4051     4.6640    15.4498 H            1 NDP350   0.0000
    66 H18          1.5975     3.6488    13.1978 H            1 NDP350   0.0000
    67 H1D          3.5141     2.9655    14.3681 H            1 NDP350   0.0000
    68 H2N          3.1407     0.5396    14.8189 H            1 NDP350   0.0000
    69 H7N1         2.9539    -2.7854    14.3375 H            1 NDP350   0.0000
    70 H7N2         3.3428    -1.0983    14.2870 H            1 NDP350   0.0000
    71 H4N1        -0.1731    -0.4132    16.9537 H            1 NDP350   0.0000
    72 H4N2        -0.6090     0.5380    15.7000 H            1 NDP350   0.0000
    73 H5N         -0.2198     1.7837    17.9756 H            1 NDP350   0.0000
    74 H6N          1.6288     3.1336    17.5453 H            1 NDP350   0.0000
@<TRIPOS>BOND
     1    1    2      ar
     2    1    3      ar
     3    1    4       1
     4    1   23       1
     5    4    5       1
     6    5    6       1
     7    6    7       1
     8    6    8       1
     9    7   12       1
    10    8    9       1
    11    8   10       1
    12   10   11       1
    13   10   12       1
    14   11   45       1
    15   12   13       1
    16   13   14       1
    17   13   22       1
    18   14   15       2
    19   15   16       1
    20   16   17      ar
    21   16   22      ar
    22   17   18       1
    23   17   19      ar
    24   19   20      ar
    25   20   21      ar
    26   21   22      ar
    27   23   24       1
    28   24   25      ar
    29   24   26      ar
    30   24   27       1
    31   27   28       1
    32   28   29       1
    33   29   30       1
    34   29   31       1
    35   30   35       1
    36   31   32       1
    37   31   33       1
    38   33   34       1
    39   33   35       1
    40   35   36       1
    41   36   37       1
    42   36   44       1
    43   37   38       2
    44   38   39       1
    45   38   42       1
    46   39   40       2
    47   39   41      am
    48   42   43       1
    49   43   44       2
    50   45   46      ar
    51   45   47      ar
    52   45   48      ar
    53   43   73       1
    54    5   49       1
    55    5   50       1
    56    6   51       1
    57    8   52       1
    58    9   53       1
    59   10   54       1
    60   12   55       1
    61   14   56       1
    62   18   57       1
    63   18   58       1
    64   20   59       1
    65   44   74       1
    66   28   60       1
    67   28   61       1
    68   29   62       1
    69   31   63       1
    70   32   64       1
    71   33   65       1
    72   34   66       1
    73   35   67       1
    74   37   68       1
    75   41   69       1
    76   41   70       1
    77   42   71       1
    78   42   72       1
@<TRIPOS>SUBSTRUCTURE
     1 NDP350      1 GROUP             4 A     NDP     0 **** NDP A 350
