@<TRIPOS>MOLECULE
./coach420/3kv8/ligand.pdb
 21 8 0 0 0
SMALL
GASTEIGER

@<TRIPOS>ATOM
      1  C          7.7960    9.6030   15.0330 C.2   140  FAH140      0.4002
      2  F          8.6300    7.5760   14.1540 F     140  FAH140     -0.2214
      3  O          6.7950    9.0040   15.6080 O.co2 140  FAH140     -0.2425
      4  CH3        8.9870    8.8260   14.5720 C.3   140  FAH140      0.3061
      5  OXT        7.9780   10.8310   14.7960 O.co2 140  FAH140     -0.2425
      6  F         13.1340   -7.3260   17.5480 F     141  FAH141     -0.2312
      7  O         12.3570   -7.4810   20.4310 O.3   141  FAH141      0.0000
      8  CH3       13.9460   -7.7770   18.6210 C.3   141  FAH141      0.2312
      9  OXT       12.9000   -9.5470   19.8590 O.3   141  FAH141      0.0000
     10  F          8.6230    6.3310   11.9240 F     142  FAH142     -0.2312
     11  O          7.7500    3.3570   13.5680 O.3   142  FAH142      0.0000
     12  CH3        7.9500    5.1290   11.8820 C.3   142  FAH142      0.2312
     13  OXT        8.9280    4.9880   13.9710 O.3   142  FAH142      0.0000
     14  F          9.7820   12.1280   17.3050 F     143  FAH143     -0.2312
     15  O          7.0070   12.4450   19.7460 O.3   143  FAH143      0.0000
     16  CH3        9.1390   12.5330   18.5160 C.3   143  FAH143      0.2312
     17  OXT        7.3680   11.0480   18.0290 O.3   143  FAH143      0.0000
     18  F         10.8040   -8.4110   17.0080 F     141  FAH141     -0.2312
     19  O         12.1760  -10.5520   17.6600 O.3   141  FAH141      0.0000
     20  CH3       10.3480   -9.6430   16.5830 C.3   141  FAH141      0.2312
     21  OXT       10.1950  -10.9800   18.5550 O.3   141  FAH141      0.0000
@<TRIPOS>BOND
     1     1     4    1
     2     1     5   ar
     3     1     3   ar
     4     2     4    1
     5     6     8    1
     6    10    12    1
     7    14    16    1
     8    18    20    1
