@<TRIPOS>MOLECULE
4db1_ANP_1_ligand
   44    46     1     0     0
SMALL
NO_CHARGES


@<TRIPOS>ATOM
     1 PG          -2.0640    40.5370    76.2420 P.3          1 ANP801   0.0000
     2 O1G         -3.2670    41.3730    75.9660 O.co2        1 ANP801   0.0000
     3 O2G         -2.4040    39.2850    76.9950 O.co2        1 ANP801  -1.0000
     4 O3G         -0.9090    41.3450    76.8590 O.co2        1 ANP801  -1.0000
     5 PB          -0.2950    40.7100    73.8710 P.3          1 ANP801   0.0000
     6 O1B         -1.0000    41.2300    72.6850 O.co2        1 ANP801   0.0000
     7 O2B          0.4100    41.7300    74.7560 O.co2        1 ANP801  -1.0000
     8 N3B         -1.5660    39.9160    74.7150 N.3          1 ANP801   0.0000
     9 PA           2.2320    39.5470    73.6450 P.3          1 ANP801   0.0000
    10 O1A          2.8310    40.7300    72.9610 O.co2        1 ANP801   0.0000
    11 O2A          2.5440    39.2690    75.0950 O.co2        1 ANP801  -1.0000
    12 O3A          0.6660    39.5440    73.3910 O.3          1 ANP801   0.0000
    13 O5'          2.5690    38.2330    72.7970 O.3          1 ANP801   0.0000
    14 C5'          2.3530    37.0000    73.4760 C.3          1 ANP801   0.0000
    15 C4'          3.4000    35.9830    73.0710 C.3          1 ANP801   0.0000
    16 O4'          3.3260    35.7810    71.6580 O.3          1 ANP801   0.0000
    17 C3'          4.8230    36.4380    73.3080 C.3          1 ANP801   0.0000
    18 O3'          5.2840    36.0460    74.5840 O.3          1 ANP801   0.0000
    19 C2'          5.6050    35.6980    72.2610 C.3          1 ANP801   0.0000
    20 O2'          5.9030    34.3900    72.7430 O.3          1 ANP801   0.0000
    21 C1'          4.6290    35.5900    71.1090 C.3          1 ANP801   0.0000
    22 N9           4.8880    36.6670    70.1160 N.pl3        1 ANP801   0.0000
    23 C8           4.1390    37.7680    69.9100 C.2          1 ANP801   0.0000
    24 N7           4.6600    38.5300    68.9100 N.2          1 ANP801   0.0000
    25 C5           5.7680    37.9150    68.4710 C.ar         1 ANP801   0.0000
    26 C6           6.7990    38.1660    67.4390 C.ar         1 ANP801   0.0000
    27 N6           6.7430    39.2670    66.6690 N.pl3        1 ANP801   0.0000
    28 N1           7.7950    37.2750    67.2880 N.ar         1 ANP801   0.0000
    29 C2           7.8600    36.1730    68.0550 C.ar         1 ANP801   0.0000
    30 N3           6.9700    35.8790    69.0140 N.ar         1 ANP801   0.0000
    31 C4           5.9170    36.6920    69.2640 C.ar         1 ANP801   0.0000
    32 H3B         -2.3677    39.9279    74.1174 H            1 ANP801   0.0000
    33 H5'1         1.4459    36.6498    73.2424 H            1 ANP801   0.0000
    34 H5'2         2.4071    37.1534    74.4627 H            1 ANP801   0.0000
    35 H4'          3.2360    35.1188    73.5467 H            1 ANP801   0.0000
    36 H3'          4.9075    37.4268    73.1853 H            1 ANP801   0.0000
    37 H6           5.7121    35.1444    74.5213 H            1 ANP801   0.0000
    38 H2'          6.4333    36.1933    71.9989 H            1 ANP801   0.0000
    39 H8           6.7655    34.0768    72.3456 H            1 ANP801   0.0000
    40 H1'          4.6975    34.6913    70.6758 H            1 ANP801   0.0000
    41 H10          3.3112    37.9948    70.4232 H            1 ANP801   0.0000
    42 H11          7.4443    39.4276    65.9745 H            1 ANP801   0.0000
    43 H12          6.0000    39.9251    66.7909 H            1 ANP801   0.0000
    44 H13          8.6154    35.5359    67.9016 H            1 ANP801   0.0000
@<TRIPOS>BOND
     1    1    2      ar
     2    1    3      ar
     3    1    4      ar
     4    1    8       1
     5    5    6      ar
     6    5    7      ar
     7    5    8       1
     8    5   12       1
     9    9   10      ar
    10    9   11      ar
    11    9   12       1
    12    9   13       1
    13   13   14       1
    14   14   15       1
    15   15   16       1
    16   15   17       1
    17   16   21       1
    18   17   18       1
    19   17   19       1
    20   19   20       1
    21   19   21       1
    22   21   22       1
    23   22   23       1
    24   22   31       1
    25   23   24       2
    26   24   25       1
    27   25   26      ar
    28   25   31      ar
    29   26   27       1
    30   26   28      ar
    31   28   29      ar
    32   29   30      ar
    33   30   31      ar
    34   29   44       1
    35   27   43       1
    36   27   42       1
    37    8   32       1
    38   23   41       1
    39   14   33       1
    40   14   34       1
    41   15   35       1
    42   17   36       1
    43   18   37       1
    44   19   38       1
    45   20   39       1
    46   21   40       1
@<TRIPOS>SUBSTRUCTURE
     1 ANP801      1 GROUP             4 A     ANP     0 **** ANP A 801
