@<TRIPOS>MOLECULE
2cb8_MYA_4_ligand
   53    52     1     0     0
SMALL
NO_CHARGES


@<TRIPOS>ATOM
     1 CFM          1.3970    35.7270    44.7110 C.3          1 MYA1089   0.0000
     2 CBM          5.4470    33.1330    45.1180 C.3          1 MYA1089   0.0000
     3 CCM          5.0660    34.6070    45.0610 C.3          1 MYA1089   0.0000
     4 CDM          3.6830    34.7590    44.4460 C.3          1 MYA1089   0.0000
     5 CEM          2.8220    35.7460    45.2210 C.3          1 MYA1089   0.0000
     6 CAM          6.6860    32.8520    44.2800 C.3          1 MYA1089   0.0000
     7 C9M          7.4410    31.6510    44.8300 C.3          1 MYA1089   0.0000
     8 C8M          7.1880    30.4240    43.9640 C.3          1 MYA1089   0.0000
     9 C7M          6.9750    29.1920    44.8320 C.3          1 MYA1089   0.0000
    10 C3M          2.9900    27.1930    42.9860 C.3          1 MYA1089   0.0000
    11 C4M          4.1580    26.7580    43.8620 C.3          1 MYA1089   0.0000
    12 C5M          4.8270    27.9540    44.5210 C.3          1 MYA1089   0.0000
    13 C6M          6.2710    28.0860    44.0620 C.3          1 MYA1089   0.0000
    14 C2M          2.3230    25.9930    42.3260 C.2          1 MYA1089   0.0000
    15 O2M          1.6640    25.2120    43.3110 O.2          1 MYA1089   0.0000
    16 S1           1.1350    26.5500    41.1470 S.3          1 MYA1089   0.0000
    17 N4          -0.7330    25.6570    38.5430 N.4          1 MYA1089   1.0000
    18 C3          -0.6010    24.9770    39.8150 C.3          1 MYA1089   0.0000
    19 C2           0.8290    25.0120    40.3400 C.3          1 MYA1089   0.0000
    20 HFM1         0.8479    36.3808    45.2316 H            1 MYA1089   0.0000
    21 HFM2         1.3859    35.9785    43.7432 H            1 MYA1089   0.0000
    22 HFM3         1.0157    34.8091    44.8212 H            1 MYA1089   0.0000
    23 HBM1         4.6862    32.5857    44.7691 H            1 MYA1089   0.0000
    24 HBM2         5.6314    32.8803    46.0678 H            1 MYA1089   0.0000
    25 HCM1         5.7332    35.1009    44.5035 H            1 MYA1089   0.0000
    26 HCM2         5.0607    34.9845    45.9870 H            1 MYA1089   0.0000
    27 HDM1         3.2304    33.8673    44.4441 H            1 MYA1089   0.0000
    28 HDM2         3.7815    35.0849    43.5057 H            1 MYA1089   0.0000
    29 HEM1         2.8276    35.4968    46.1894 H            1 MYA1089   0.0000
    30 HEM2         3.1978    36.6662    45.1114 H            1 MYA1089   0.0000
    31 HAM1         7.2842    33.6532    44.2983 H            1 MYA1089   0.0000
    32 HAM2         6.4099    32.6636    43.3375 H            1 MYA1089   0.0000
    33 H9M1         7.1313    31.4658    45.7626 H            1 MYA1089   0.0000
    34 H9M2         8.4204    31.8527    44.8379 H            1 MYA1089   0.0000
    35 H8M1         7.9767    30.2739    43.3679 H            1 MYA1089   0.0000
    36 H8M2         6.3727    30.5779    43.4057 H            1 MYA1089   0.0000
    37 H7M1         6.4172    29.4437    45.6229 H            1 MYA1089   0.0000
    38 H7M2         7.8637    28.8563    45.1441 H            1 MYA1089   0.0000
    39 H3M1         3.3269    27.8110    42.2757 H            1 MYA1089   0.0000
    40 H3M2         2.3175    27.6703    43.5516 H            1 MYA1089   0.0000
    41 H4M1         4.8295    26.2795    43.2962 H            1 MYA1089   0.0000
    42 H4M2         3.8205    26.1406    44.5726 H            1 MYA1089   0.0000
    43 H5M1         4.8082    27.8344    45.5136 H            1 MYA1089   0.0000
    44 H5M2         4.3278    28.7851    44.2759 H            1 MYA1089   0.0000
    45 H6M1         6.7469    27.2208    44.2197 H            1 MYA1089   0.0000
    46 H6M2         6.2876    28.3025    43.0859 H            1 MYA1089   0.0000
    47 H28         -0.5782    25.0064    37.7996 H            1 MYA1089   0.0000
    48 H29         -1.6531    26.0406    38.4640 H            1 MYA1089   0.0000
    49 H30         -0.8790    24.0232    39.7008 H            1 MYA1089   0.0000
    50 H31         -1.1998    25.4212    40.4814 H            1 MYA1089   0.0000
    51 H32          0.9618    24.2641    40.9904 H            1 MYA1089   0.0000
    52 H33          1.4654    24.9061    39.5759 H            1 MYA1089   0.0000
    53 H34         -0.0589    26.3935    38.4872 H            1 MYA1089   0.0000
@<TRIPOS>BOND
     1    1    5       1
     2    2    3       1
     3    2    6       1
     4    3    4       1
     5    4    5       1
     6    6    7       1
     7    7    8       1
     8    8    9       1
     9    9   13       1
    10   10   11       1
    11   10   14       1
    12   11   12       1
    13   12   13       1
    14   14   15       2
    15   14   16       1
    16   16   19       1
    17   17   18       1
    18   18   19       1
    19    1   20       1
    20    1   21       1
    21    1   22       1
    22    2   23       1
    23    2   24       1
    24    3   25       1
    25    3   26       1
    26    4   27       1
    27    4   28       1
    28    5   29       1
    29    5   30       1
    30    6   31       1
    31    6   32       1
    32    7   33       1
    33    7   34       1
    34    8   35       1
    35    8   36       1
    36    9   37       1
    37    9   38       1
    38   10   39       1
    39   10   40       1
    40   11   41       1
    41   11   42       1
    42   12   43       1
    43   12   44       1
    44   13   45       1
    45   13   46       1
    46   17   47       1
    47   17   48       1
    48   18   49       1
    49   18   50       1
    50   19   51       1
    51   19   52       1
    52   17   53       1
@<TRIPOS>SUBSTRUCTURE
     1 MYA1089     1 GROUP             4 B     MYA     0 **** MYA B1089
