@<TRIPOS>MOLECULE
4ej4_EJ4_1_ligand
   58    65     1     0     0
SMALL
USER_CHARGES


@<TRIPOS>ATOM
     1 CAB         61.2610    38.3910    -9.3050 C.ar         1 EJ4500   0.0000
     2 CAC         62.1390    39.2520    -9.8390 C.ar         1 EJ4500   0.0000
     3 CAE         63.3220    40.5530   -11.4250 C.3          1 EJ4500   0.0000
     4 CAF         62.2800    40.9440   -12.3090 C.2          1 EJ4500   0.0000
     5 CAG         61.5300    42.0630   -12.1570 C.2          1 EJ4500   0.0000
     6 CAH         60.7050    42.1740   -13.1970 C.ar         1 EJ4500   0.0000
     7 CAI         59.7250    43.0450   -13.4530 C.ar         1 EJ4500   0.0000
     8 CAJ         59.0480    43.0230   -14.6640 C.ar         1 EJ4500   0.0000
     9 CAK         59.4240    42.0680   -15.5950 C.ar         1 EJ4500   0.0000
    10 CAL         60.4520    41.1850   -15.2770 C.ar         1 EJ4500   0.0000
    11 CAM         61.0650    41.2560   -14.0940 C.ar         1 EJ4500   0.0000
    12 CAO         61.5070    42.6510   -10.9110 C.3          1 EJ4500   0.0000
    13 CAP         62.8470    42.5110   -10.1480 C.3          1 EJ4500   0.0000
    14 CAR         62.7180    43.1490    -8.7610 C.3          1 EJ4500   0.0000
    15 CAT         64.0090    41.1980    -7.9410 C.3          1 EJ4500   0.0000
    16 CAU         64.1800    40.6650    -9.3140 C.3          1 EJ4500   0.0000
    17 CAV         62.9510    41.1370   -10.1120 C.3          1 EJ4500   0.0000
    18 CAW         61.8990    40.4940    -9.5180 C.ar         1 EJ4500   0.0000
    19 CAX         61.2160    40.9910    -8.4720 C.ar         1 EJ4500   0.0000
    20 CAY         60.3350    40.1240    -7.8390 C.ar         1 EJ4500   0.0000
    21 CAZ         60.3800    38.7950    -8.2880 C.ar         1 EJ4500   0.0000
    22 NAN         62.0550    40.5390   -13.5630 N.pl3        1 EJ4500   0.0000
    23 NAS         63.9280    42.6750    -8.0230 N.4          1 EJ4500   1.0000
    24 OAA         61.3200    37.1010    -9.7400 O.3          1 EJ4500   0.0000
    25 OAD         62.9740    39.1800   -10.9530 O.3          1 EJ4500   0.0000
    26 OAQ         63.9270    43.1190   -10.8810 O.3          1 EJ4500   0.0000
    27 CBA         61.3550    42.4260    -8.3130 C.3          1 EJ4500   0.0000
    28 CBB         63.7660    42.9500    -6.5740 C.3          1 EJ4500   0.0000
    29 CBC         63.8020    44.4350    -6.0830 C.3          1 EJ4500   0.0000
    30 CBD         62.8010    45.5200    -6.5120 C.3          1 EJ4500   0.0000
    31 CBE         62.6660    44.8530    -5.1490 C.3          1 EJ4500   0.0000
    32 HAE         64.2604    40.7004   -11.7375 H            1 EJ4500   0.0000
    33 HAI         59.4756    43.7230   -12.7615 H            1 EJ4500   0.0000
    34 HAJ         58.3141    43.6739   -14.8582 H            1 EJ4500   0.0000
    35 HAK         58.9641    42.0140   -16.4813 H            1 EJ4500   0.0000
    36 HAL         60.7334    40.4918   -15.9406 H            1 EJ4500   0.0000
    37 HAO1        60.7857    42.2199   -10.3690 H            1 EJ4500   0.0000
    38 HAO2        61.3042    43.6239   -11.0220 H            1 EJ4500   0.0000
    39 HAR         62.6422    44.1456    -8.7924 H            1 EJ4500   0.0000
    40 HAT1        64.7900    40.9329    -7.3755 H            1 EJ4500   0.0000
    41 HAT2        63.1682    40.8349    -7.5394 H            1 EJ4500   0.0000
    42 HAU1        64.2192    39.6659    -9.2960 H            1 EJ4500   0.0000
    43 HAU2        65.0186    41.0242    -9.7237 H            1 EJ4500   0.0000
    44 HAY         59.7135    40.4248    -7.1156 H            1 EJ4500   0.0000
    45 HAZ         59.7701    38.1193    -7.8739 H            1 EJ4500   0.0000
    46 HAN         62.5535    39.8094   -14.0312 H            1 EJ4500   0.0000
    47 HAA         60.6866    36.4200    -9.3725 H            1 EJ4500   0.0000
    48 HAQ         64.3360    43.8463   -10.3299 H            1 EJ4500   0.0000
    49 HBA1        60.6165    42.8487    -8.8383 H            1 EJ4500   0.0000
    50 HBA2        61.2281    42.6236    -7.3410 H            1 EJ4500   0.0000
    51 HBB1        64.4997    42.4648    -6.0984 H            1 EJ4500   0.0000
    52 HBB2        62.8826    42.5704    -6.2992 H            1 EJ4500   0.0000
    53 HBC         64.7071    44.7731    -5.8253 H            1 EJ4500   0.0000
    54 HBD1        62.1331    45.3281    -7.2311 H            1 EJ4500   0.0000
    55 HBD2        63.0940    46.4740    -6.5752 H            1 EJ4500   0.0000
    56 HBE1        62.8686    45.3710    -4.3180 H            1 EJ4500   0.0000
    57 HBE2        61.9076    44.2251    -4.9739 H            1 EJ4500   0.0000
    58 HAS         64.7686    43.0756    -8.3875 H            1 EJ4500   0.0000
@<TRIPOS>BOND
     1    1    2      ar
     2    1   21      ar
     3    1   24       1
     4    2   18      ar
     5    2   25       1
     6    3    4       1
     7    3   17       1
     8    3   25       1
     9    4    5       2
    10    4   22       1
    11    5    6       1
    12    5   12       1
    13    6    7      ar
    14    6   11      ar
    15    7    8      ar
    16    8    9      ar
    17    9   10      ar
    18   10   11      ar
    19   11   22       1
    20   12   13       1
    21   13   14       1
    22   13   17       1
    23   13   26       1
    24   14   23       1
    25   14   27       1
    26   15   16       1
    27   15   23       1
    28   16   17       1
    29   17   18       1
    30   18   19      ar
    31   19   20      ar
    32   19   27       1
    33   20   21      ar
    34   23   28       1
    35   28   29       1
    36   29   30       1
    37   29   31       1
    38   30   31       1
    39    3   32       1
    40    7   33       1
    41    8   34       1
    42    9   35       1
    43   10   36       1
    44   12   37       1
    45   12   38       1
    46   14   39       1
    47   15   40       1
    48   15   41       1
    49   16   42       1
    50   16   43       1
    51   20   44       1
    52   21   45       1
    53   22   46       1
    54   24   47       1
    55   26   48       1
    56   27   49       1
    57   27   50       1
    58   28   51       1
    59   28   52       1
    60   29   53       1
    61   30   54       1
    62   30   55       1
    63   31   56       1
    64   31   57       1
    65   23   58       1
@<TRIPOS>SUBSTRUCTURE
     1 EJ4500      1 GROUP             4 A     EJ4     0 **** EJ4 A 500
