@<TRIPOS>MOLECULE
4lcw_1VY_2_ligand
   39    40     1     0     0
SMALL
NO_CHARGES


@<TRIPOS>ATOM
     1 O7        -134.1370    34.9010   119.2210 O.2          1 1VY301   0.0000
     2 C7        -134.6610    36.0700   119.7070 C.2          1 1VY301   0.0000
     3 C6        -135.7840    35.9760   120.5600 C.2          1 1VY301   0.0000
     4 C9        -136.3340    34.7160   120.8620 C.3          1 1VY301   0.0000
     5 N5        -136.3460    37.1110   121.0630 N.2          1 1VY301   0.0000
     6 C4A       -135.8270    38.3190   120.7230 C.2          1 1VY301   0.0000
     7 C4        -136.3950    39.5150   121.1820 C.2          1 1VY301   0.0000
     8 O4        -137.4280    39.5100   121.8440 O.2          1 1VY301   0.0000
     9 N3        -135.8940    40.7030   120.7670 N.pl3        1 1VY301   0.0000
    10 C2        -134.8080    40.7790   119.9620 C.2          1 1VY301   0.0000
    11 O2        -134.3810    41.8690   119.5730 O.2          1 1VY301   0.0000
    12 N1        -134.2520    39.6470   119.5040 N.pl3        1 1VY301   0.0000
    13 C8A       -134.7220    38.4120   119.8410 C.2          1 1VY301   0.0000
    14 N8        -134.1260    37.2700   119.3740 N.pl3        1 1VY301   0.0000
    15 C1'       -133.0730    37.3150   118.2980 C.3          1 1VY301   0.0000
    16 C2'       -131.5970    37.3380   118.7040 C.3          1 1VY301   0.0000
    17 O2'       -131.3050    36.3070   119.6590 O.3          1 1VY301   0.0000
    18 C3'       -131.1760    38.7550   119.1430 C.3          1 1VY301   0.0000
    19 O3'       -131.8170    39.7660   118.3240 O.3          1 1VY301   0.0000
    20 C4'       -129.6450    38.9560   119.2340 C.3          1 1VY301   0.0000
    21 O4'       -129.4320    40.1920   119.9210 O.3          1 1VY301   0.0000
    22 C5'       -129.0030    39.0920   117.8480 C.3          1 1VY301   0.0000
    23 O5'       -127.7910    38.3470   117.7450 O.3          1 1VY301   0.0000
    24 H1        -137.1166    34.8318   121.4737 H            1 1VY301   0.0000
    25 H2        -136.6338    34.2721   120.0176 H            1 1VY301   0.0000
    26 H3        -135.6424    34.1489   121.3093 H            1 1VY301   0.0000
    27 H4        -136.3389    41.5480   121.0636 H            1 1VY301   0.0000
    28 H5        -133.4633    39.7114   118.8926 H            1 1VY301   0.0000
    29 H1'1      -133.2412    38.1396   117.7578 H            1 1VY301   0.0000
    30 H1'2      -133.2063    36.5073   117.7237 H            1 1VY301   0.0000
    31 H2'       -131.0701    37.1243   117.8814 H            1 1VY301   0.0000
    32 H9        -131.5119    35.4140   119.2592 H            1 1VY301   0.0000
    33 H3'       -131.5307    38.8785   120.0698 H            1 1VY301   0.0000
    34 H11       -131.9797    39.3991   117.4081 H            1 1VY301   0.0000
    35 H4'       -129.2252    38.2015   119.7385 H            1 1VY301   0.0000
    36 H13       -128.9064    40.0236   120.7549 H            1 1VY301   0.0000
    37 H5'1      -128.8042    40.0571   117.6776 H            1 1VY301   0.0000
    38 H5'2      -129.6469    38.7577   117.1598 H            1 1VY301   0.0000
    39 H5'       -127.1762    38.7984   117.0983 H            1 1VY301   0.0000
@<TRIPOS>BOND
     1    1    2       2
     2    2    3       1
     3    2   14       1
     4    3    4       1
     5    3    5       2
     6    5    6       1
     7    6    7       1
     8    6   13       2
     9    7    8       2
    10    7    9       1
    11    9   10       1
    12   10   11       2
    13   10   12       1
    14   12   13       1
    15   13   14       1
    16   14   15       1
    17   15   16       1
    18   16   17       1
    19   16   18       1
    20   18   19       1
    21   18   20       1
    22   20   21       1
    23   20   22       1
    24   22   23       1
    25    4   24       1
    26    4   25       1
    27    4   26       1
    28    9   27       1
    29   12   28       1
    30   15   29       1
    31   15   30       1
    32   16   31       1
    33   17   32       1
    34   18   33       1
    35   19   34       1
    36   20   35       1
    37   21   36       1
    38   22   37       1
    39   22   38       1
    40   23   39       1
@<TRIPOS>SUBSTRUCTURE
     1 1VY301      1 GROUP             4 C     1VY     0 **** 1VY C 301
