@<TRIPOS>MOLECULE
3mkh_FAD_1_ligand
   84    89     1     0     0
SMALL
NO_CHARGES


@<TRIPOS>ATOM
     1 PA          85.7010    42.4030    77.8050 P.3          1 FAD500   0.0000
     2 O1A         86.7380    42.9420    78.6820 O.co2        1 FAD500   0.0000
     3 O2A         85.4270    43.0700    76.5310 O.co2        1 FAD500  -1.0000
     4 O5B         86.0400    40.8580    77.5210 O.3          1 FAD500   0.0000
     5 C5B         85.7900    40.2730    76.2450 C.3          1 FAD500   0.0000
     6 C4B         85.8860    38.7360    76.2620 C.3          1 FAD500   0.0000
     7 O4B         87.2280    38.3540    76.5930 O.3          1 FAD500   0.0000
     8 C3B         85.0070    38.1280    77.3520 C.3          1 FAD500   0.0000
     9 O3B         83.7070    37.8510    76.8290 O.3          1 FAD500   0.0000
    10 C2B         85.7230    36.8250    77.6580 C.3          1 FAD500   0.0000
    11 O2B         85.3100    35.8130    76.7460 O.3          1 FAD500   0.0000
    12 C1B         87.1950    37.1670    77.4250 C.3          1 FAD500   0.0000
    13 N9A         87.8290    37.4480    78.7430 N.pl3        1 FAD500   0.0000
    14 C8A         88.3770    38.5990    79.1210 C.2          1 FAD500   0.0000
    15 N7A         88.8380    38.4920    80.3610 N.2          1 FAD500   0.0000
    16 C5A         88.5840    37.2580    80.7790 C.ar         1 FAD500   0.0000
    17 C6A         88.8310    36.5740    81.9610 C.ar         1 FAD500   0.0000
    18 N6A         89.4450    37.1730    82.9730 N.pl3        1 FAD500   0.0000
    19 N1A         88.4420    35.2990    82.0640 N.ar         1 FAD500   0.0000
    20 C2A         87.8310    34.6950    81.0610 C.ar         1 FAD500   0.0000
    21 N3A         87.5820    35.3170    79.9210 N.ar         1 FAD500   0.0000
    22 C4A         87.9430    36.5930    79.7510 C.ar         1 FAD500   0.0000
    23 N1          78.9060    49.6630    79.2140 N.2          1 FAD500   0.0000
    24 C2          78.7910    50.6510    80.1830 C.2          1 FAD500   0.0000
    25 O2          79.7740    50.9730    80.8350 O.2          1 FAD500   0.0000
    26 N3          77.5640    51.2650    80.4140 N.pl3        1 FAD500   0.0000
    27 C4          76.4420    50.9040    79.6720 C.2          1 FAD500   0.0000
    28 O4          75.3650    51.4570    79.8810 O.2          1 FAD500   0.0000
    29 C4X         76.5580    49.9170    78.7020 C.2          1 FAD500   0.0000
    30 N5          75.4520    49.5250    77.9430 N.2          1 FAD500   0.0000
    31 C5X         75.6570    48.8010    76.7640 C.ar         1 FAD500   0.0000
    32 C6          74.6480    48.6820    75.8130 C.ar         1 FAD500   0.0000
    33 C7          74.8710    47.9640    74.6440 C.ar         1 FAD500   0.0000
    34 C7M         73.7740    47.8300    73.5920 C.3          1 FAD500   0.0000
    35 C8          76.1040    47.3630    74.4300 C.ar         1 FAD500   0.0000
    36 C8M         76.3620    46.5710    73.1480 C.3          1 FAD500   0.0000
    37 C9          77.1050    47.4760    75.3830 C.ar         1 FAD500   0.0000
    38 C9A         76.8850    48.1960    76.5470 C.ar         1 FAD500   0.0000
    39 N10         77.8930    48.3160    77.5030 N.pl3        1 FAD500   0.0000
    40 C10         77.7860    49.3010    78.4770 C.2          1 FAD500   0.0000
    41 C1'         79.0610    47.4030    77.5020 C.3          1 FAD500   0.0000
    42 C2'         78.7530    46.1210    78.2770 C.3          1 FAD500   0.0000
    43 O2'         78.5000    46.4280    79.6440 O.3          1 FAD500   0.0000
    44 C3'         79.8740    45.0740    78.1750 C.3          1 FAD500   0.0000
    45 O3'         79.4010    43.8590    78.7380 O.3          1 FAD500   0.0000
    46 C4'         81.1630    45.4720    78.9090 C.3          1 FAD500   0.0000
    47 O4'         81.9300    46.3630    78.1110 O.3          1 FAD500   0.0000
    48 C5'         82.0090    44.2300    79.2140 C.3          1 FAD500   0.0000
    49 O5'         82.2620    43.4700    78.0310 O.3          1 FAD500   0.0000
    50 P           82.8690    41.9990    78.1190 P.3          1 FAD500   0.0000
    51 O1P         82.1460    41.2680    79.1660 O.co2        1 FAD500   0.0000
    52 O2P         82.9270    41.4290    76.7730 O.co2        1 FAD500  -1.0000
    53 O3P         84.3530    42.3020    78.6760 O.3          1 FAD500   0.0000
    54 H5B1        86.4614    40.6276    75.5942 H            1 FAD500   0.0000
    55 H5B2        84.8704    40.5321    75.9497 H            1 FAD500   0.0000
    56 H4B         85.6327    38.3652    75.3685 H            1 FAD500   0.0000
    57 H3B         84.9601    38.7188    78.1575 H            1 FAD500   0.0000
    58 H5          83.6886    36.9235    76.4555 H            1 FAD500   0.0000
    59 H2B         85.5653    36.5421    78.6041 H            1 FAD500   0.0000
    60 H7          85.5292    36.0961    75.8123 H            1 FAD500   0.0000
    61 H1B         87.6609    36.4088    76.9689 H            1 FAD500   0.0000
    62 H8A         88.4334    39.4220    78.5557 H            1 FAD500   0.0000
    63 H6A1        89.6182    36.6711    83.8204 H            1 FAD500   0.0000
    64 H6A2        89.7346    38.1264    82.8884 H            1 FAD500   0.0000
    65 H2A         87.5490    33.7414    81.1665 H            1 FAD500   0.0000
    66 H13         77.4871    51.9709    81.1182 H            1 FAD500   0.0000
    67 H14         73.7602    49.1142    75.9711 H            1 FAD500   0.0000
    68 H7M1        74.1120    47.2836    72.8257 H            1 FAD500   0.0000
    69 H7M2        72.9776    47.3803    73.9963 H            1 FAD500   0.0000
    70 H7M3        73.5135    48.7382    73.2645 H            1 FAD500   0.0000
    71 H8M1        77.2947    46.2105    73.1609 H            1 FAD500   0.0000
    72 H8M2        75.7125    45.8130    73.0880 H            1 FAD500   0.0000
    73 H8M3        76.2476    47.1714    72.3565 H            1 FAD500   0.0000
    74 H21         77.9898    47.0360    75.2298 H            1 FAD500   0.0000
    75 H1'1        79.8380    47.8651    77.9294 H            1 FAD500   0.0000
    76 H1'2        79.2914    47.1674    76.5579 H            1 FAD500   0.0000
    77 H2'         77.9214    45.7205    77.8921 H            1 FAD500   0.0000
    78 H25         77.5238    46.6035    79.7711 H            1 FAD500   0.0000
    79 H3'         80.0862    44.9214    77.2098 H            1 FAD500   0.0000
    80 H27         79.4229    43.1393    78.0441 H            1 FAD500   0.0000
    81 H4'         80.9242    45.9247    79.7681 H            1 FAD500   0.0000
    82 H29         82.0500    47.2279    78.5985 H            1 FAD500   0.0000
    83 H5'1        81.5201    43.6564    79.8712 H            1 FAD500   0.0000
    84 H5'2        82.8814    44.5190    79.6081 H            1 FAD500   0.0000
@<TRIPOS>BOND
     1    1    2      ar
     2    1    3      ar
     3    1    4       1
     4    1   53       1
     5    4    5       1
     6    5    6       1
     7    6    7       1
     8    6    8       1
     9    7   12       1
    10    8    9       1
    11    8   10       1
    12   10   11       1
    13   10   12       1
    14   12   13       1
    15   13   14       1
    16   13   22       1
    17   14   15       2
    18   15   16       1
    19   16   17      ar
    20   16   22      ar
    21   17   18       1
    22   17   19      ar
    23   19   20      ar
    24   20   21      ar
    25   21   22      ar
    26   23   24       1
    27   23   40       2
    28   24   25       2
    29   24   26       1
    30   26   27       1
    31   27   28       2
    32   27   29       1
    33   29   30       2
    34   29   40       1
    35   30   31       1
    36   31   32      ar
    37   31   38      ar
    38   32   33      ar
    39   33   34       1
    40   33   35      ar
    41   35   36       1
    42   35   37      ar
    43   37   38      ar
    44   38   39       1
    45   39   40       1
    46   39   41       1
    47   41   42       1
    48   42   43       1
    49   42   44       1
    50   44   45       1
    51   44   46       1
    52   46   47       1
    53   46   48       1
    54   48   49       1
    55   49   50       1
    56   50   51      ar
    57   50   52      ar
    58   50   53       1
    59   48   84       1
    60    5   54       1
    61    5   55       1
    62    6   56       1
    63    8   57       1
    64    9   58       1
    65   10   59       1
    66   11   60       1
    67   12   61       1
    68   14   62       1
    69   18   63       1
    70   18   64       1
    71   20   65       1
    72   26   66       1
    73   32   67       1
    74   34   68       1
    75   34   69       1
    76   34   70       1
    77   36   71       1
    78   36   72       1
    79   36   73       1
    80   37   74       1
    81   41   75       1
    82   41   76       1
    83   42   77       1
    84   43   78       1
    85   44   79       1
    86   45   80       1
    87   46   81       1
    88   47   82       1
    89   48   83       1
@<TRIPOS>SUBSTRUCTURE
     1 FAD500      1 GROUP             4 A     FAD     0 **** FAD A 500
