@<TRIPOS>MOLECULE
1hku_NAD_1_ligand
   71    75     1     0     0
SMALL
NO_CHARGES


@<TRIPOS>ATOM
     1 PA           3.9830    24.8760    26.4610 P.3          1 NAD600   0.0000
     2 O1A          2.7200    24.1350    26.3470 O.co2        1 NAD600   0.0000
     3 O2A          4.9000    25.4510    25.4140 O.co2        1 NAD600  -1.0000
     4 O5B          4.1640    25.5490    27.8900 O.3          1 NAD600   0.0000
     5 C5B          3.1970    25.5160    28.9820 C.3          1 NAD600   0.0000
     6 C4B          3.9730    25.1060    30.2150 C.3          1 NAD600   0.0000
     7 O4B          2.9970    25.1300    31.3190 O.3          1 NAD600   0.0000
     8 C3B          4.5310    23.6250    30.2450 C.3          1 NAD600   0.0000
     9 O3B          5.9900    23.6100    30.4120 O.3          1 NAD600   0.0000
    10 C2B          3.7970    22.9440    31.3920 C.3          1 NAD600   0.0000
    11 O2B          4.4500    21.9230    32.0530 O.3          1 NAD600   0.0000
    12 C1B          3.4460    24.1680    32.2280 C.3          1 NAD600   0.0000
    13 N9A          2.3530    23.9240    33.1420 N.pl3        1 NAD600   0.0000
    14 C8A          1.1560    23.2390    33.0460 C.2          1 NAD600   0.0000
    15 N7A          0.4410    23.2690    34.1590 N.2          1 NAD600   0.0000
    16 C5A          1.1420    23.9860    35.0560 C.ar         1 NAD600   0.0000
    17 C6A          0.8890    24.3740    36.4550 C.ar         1 NAD600   0.0000
    18 N6A         -0.1960    24.0320    37.1190 N.pl3        1 NAD600   0.0000
    19 N1A          1.8950    25.1430    37.0300 N.ar         1 NAD600   0.0000
    20 C2A          3.0270    25.5330    36.4200 C.ar         1 NAD600   0.0000
    21 N3A          3.3150    25.1890    35.0960 N.ar         1 NAD600   0.0000
    22 C4A          2.3400    24.4120    34.4490 C.ar         1 NAD600   0.0000
    23 O3           3.1280    26.2340    26.0700 O.3          1 NAD600   0.0000
    24 PN           3.6660    27.6830    25.5180 P.3          1 NAD600   0.0000
    25 O1N          4.2990    28.5740    26.4990 O.co2        1 NAD600   0.0000
    26 O2N          3.1110    28.0290    24.1910 O.co2        1 NAD600  -1.0000
    27 O5D          2.3430    28.3020    26.2400 O.3          1 NAD600   0.0000
    28 C5D          0.9990    27.9260    25.8050 C.3          1 NAD600   0.0000
    29 C4D         -0.0690    28.4920    26.6660 C.3          1 NAD600   0.0000
    30 O4D         -0.0650    29.9860    26.6630 O.3          1 NAD600   0.0000
    31 C3D         -1.4620    28.0650    26.1360 C.3          1 NAD600   0.0000
    32 O3D         -1.9330    26.8880    26.7740 O.3          1 NAD600   0.0000
    33 C2D         -2.3400    29.2930    26.4330 C.3          1 NAD600   0.0000
    34 O2D         -2.9610    29.1910    27.6900 O.3          1 NAD600   0.0000
    35 C1D         -1.3610    30.5190    26.2510 C.3          1 NAD600   0.0000
    36 N1N         -1.3980    31.0210    24.8220 N.pl3        1 NAD600   0.0000
    37 C2N         -2.0920    32.2790    24.6700 C.2          1 NAD600   0.0000
    38 C3N         -1.7310    33.2810    23.8750 C.2          1 NAD600   0.0000
    39 C7N         -2.5500    34.5780    23.7660 C.2          1 NAD600   0.0000
    40 O7N         -2.8280    34.9850    22.6260 O.2          1 NAD600   0.0000
    41 N7N         -2.9070    35.2580    24.8610 N.am         1 NAD600   0.0000
    42 C4N         -0.4970    33.2190    23.0150 C.3          1 NAD600   0.0000
    43 C5N          0.2770    31.9350    23.1740 C.2          1 NAD600   0.0000
    44 C6N         -0.1750    30.9210    24.0460 C.2          1 NAD600   0.0000
    45 H5B1         2.4764    24.8504    28.7878 H            1 NAD600   0.0000
    46 H5B2         2.7896    26.4198    29.1126 H            1 NAD600   0.0000
    47 H4B          4.7110    25.7573    30.3916 H            1 NAD600   0.0000
    48 H3B          4.2945    23.1682    29.3874 H            1 NAD600   0.0000
    49 H5           6.2317    24.0592    31.2721 H            1 NAD600   0.0000
    50 H2B          2.9437    22.5716    31.0270 H            1 NAD600   0.0000
    51 H7           4.9726    22.3012    32.8171 H            1 NAD600   0.0000
    52 H1B          4.2501    24.4990    32.7218 H            1 NAD600   0.0000
    53 H8A          0.8593    22.7667    32.2160 H            1 NAD600   0.0000
    54 H6A1        -0.3144    24.3242    38.0680 H            1 NAD600   0.0000
    55 H6A2        -0.9013    23.4801    36.6741 H            1 NAD600   0.0000
    56 H2A          3.6849    26.0874    36.9298 H            1 NAD600   0.0000
    57 H5D1         0.9262    26.9288    25.8211 H            1 NAD600   0.0000
    58 H5D2         0.8628    28.2551    24.8706 H            1 NAD600   0.0000
    59 H4D          0.0472    28.1604    27.6023 H            1 NAD600   0.0000
    60 H3D         -1.4149    27.9162    25.1482 H            1 NAD600   0.0000
    61 H17         -2.8308    26.6460    26.4061 H            1 NAD600   0.0000
    62 H2D         -3.0515    29.3498    25.7326 H            1 NAD600   0.0000
    63 H19         -3.0981    30.1061    28.0693 H            1 NAD600   0.0000
    64 H1D         -1.6308    31.2561    26.8706 H            1 NAD600   0.0000
    65 H2N         -2.9213    32.4078    25.2137 H            1 NAD600   0.0000
    66 H7N1        -3.4396    36.1000    24.7752 H            1 NAD600   0.0000
    67 H7N2        -2.6413    34.9244    25.7655 H            1 NAD600   0.0000
    68 H4N1         0.1003    33.9822    23.2615 H            1 NAD600   0.0000
    69 H4N2        -0.7725    33.3070    22.0577 H            1 NAD600   0.0000
    70 H5N          1.1212    31.7999    22.6552 H            1 NAD600   0.0000
    71 H6N          0.3757    30.0909    24.1338 H            1 NAD600   0.0000
@<TRIPOS>BOND
     1    1    2      ar
     2    1    3      ar
     3    1    4       1
     4    1   23       1
     5    4    5       1
     6    5    6       1
     7    6    7       1
     8    6    8       1
     9    7   12       1
    10    8    9       1
    11    8   10       1
    12   10   11       1
    13   10   12       1
    14   12   13       1
    15   13   14       1
    16   13   22       1
    17   14   15       2
    18   15   16       1
    19   16   17      ar
    20   16   22      ar
    21   17   18       1
    22   17   19      ar
    23   19   20      ar
    24   20   21      ar
    25   21   22      ar
    26   23   24       1
    27   24   25      ar
    28   24   26      ar
    29   24   27       1
    30   27   28       1
    31   28   29       1
    32   29   30       1
    33   29   31       1
    34   30   35       1
    35   31   32       1
    36   31   33       1
    37   33   34       1
    38   33   35       1
    39   35   36       1
    40   36   37       1
    41   36   44       1
    42   37   38       2
    43   38   39       1
    44   38   42       1
    45   39   40       2
    46   39   41      am
    47   42   43       1
    48   43   44       2
    49   44   71       1
    50    5   45       1
    51    5   46       1
    52    6   47       1
    53    8   48       1
    54    9   49       1
    55   10   50       1
    56   11   51       1
    57   12   52       1
    58   14   53       1
    59   18   54       1
    60   18   55       1
    61   20   56       1
    62   43   70       1
    63   28   57       1
    64   28   58       1
    65   29   59       1
    66   31   60       1
    67   32   61       1
    68   33   62       1
    69   34   63       1
    70   35   64       1
    71   37   65       1
    72   41   66       1
    73   41   67       1
    74   42   68       1
    75   42   69       1
@<TRIPOS>SUBSTRUCTURE
     1 NAD600      1 GROUP             4 A     NAD     0 **** NAD A 600
