@<TRIPOS>MOLECULE
1utt_CP8_1_ligand
   46    49     1     0     0
SMALL
NO_CHARGES


@<TRIPOS>ATOM
     1 C1         120.0250    37.5110    80.3020 C.ar         1 CP81266   0.0000
     2 C2         119.6350    36.7030    79.1170 C.ar         1 CP81266   0.0000
     3 N3         120.5530    38.7440    79.9670 N.pl3        1 CP81266   0.0000
     4 C4         119.8420    36.9650    81.5940 C.ar         1 CP81266   0.0000
     5 C5         119.0800    35.4200    79.2710 C.ar         1 CP81266   0.0000
     6 C6         119.9280    37.4420    77.8680 C.3          1 CP81266   0.0000
     7 S7         121.0080    38.7540    78.3900 S.o2         1 CP81266   0.0000
     8 C8         121.0470    39.6920    80.9670 C.3          1 CP81266   0.0000
     9 C9         119.2800    35.6620    81.7290 C.ar         1 CP81266   0.0000
    10 C10        118.8950    34.8820    80.5830 C.ar         1 CP81266   0.0000
    11 O11        120.6250    40.0090    77.8130 O.2          1 CP81266   0.0000
    12 O12        122.3760    38.3450    78.3490 O.2          1 CP81266   0.0000
    13 C13        118.2820    33.5010    80.7450 C.3          1 CP81266   0.0000
    14 C14        119.2570    32.3960    80.2780 C.3          1 CP81266   0.0000
    15 O15        117.9630    33.2610    82.1120 O.3          1 CP81266   0.0000
    16 N16        118.8740    31.0270    80.7130 N.am         1 CP81266   0.0000
    17 C17        117.3400    32.0110    82.4280 C.3          1 CP81266   0.0000
    18 C18        119.5210    29.8940    80.0020 C.3          1 CP81266   0.0000
    19 C19        117.9660    30.7770    81.7390 C.2          1 CP81266   0.0000
    20 C20        118.6200    29.1080    79.0530 C.ar         1 CP81266   0.0000
    21 O21        117.6500    29.6550    82.1070 O.2          1 CP81266   0.0000
    22 C22        117.4080    29.6540    78.5350 C.ar         1 CP81266   0.0000
    23 C23        118.9880    27.7930    78.6660 C.ar         1 CP81266   0.0000
    24 C24        116.5880    28.8980    77.6580 C.ar         1 CP81266   0.0000
    25 C25        118.1720    27.0370    77.7890 C.ar         1 CP81266   0.0000
    26 C26        116.9710    27.5900    77.2850 C.ar         1 CP81266   0.0000
    27 H1         120.1044    37.4881    82.4049 H            1 CP81266   0.0000
    28 H2         118.8161    34.8867    78.4673 H            1 CP81266   0.0000
    29 H3         119.0890    37.8101    77.4674 H            1 CP81266   0.0000
    30 H4         120.3832    36.8500    77.2029 H            1 CP81266   0.0000
    31 H5         121.3830    40.5149    80.5088 H            1 CP81266   0.0000
    32 H6         120.3039    39.9370    81.5897 H            1 CP81266   0.0000
    33 H7         121.7916    39.2717    81.4856 H            1 CP81266   0.0000
    34 H8         119.1500    35.2801    82.6440 H            1 CP81266   0.0000
    35 H9         117.4449    33.4494    80.2004 H            1 CP81266   0.0000
    36 H10        120.1638    32.6007    80.6465 H            1 CP81266   0.0000
    37 H11        119.2924    32.4099    79.2787 H            1 CP81266   0.0000
    38 H12        116.3796    32.0651    82.1547 H            1 CP81266   0.0000
    39 H13        117.3980    31.8767    83.4172 H            1 CP81266   0.0000
    40 H14        119.8709    29.2587    80.6904 H            1 CP81266   0.0000
    41 H15        120.2834    30.2608    79.4688 H            1 CP81266   0.0000
    42 H16        117.1332    30.5802    78.7930 H            1 CP81266   0.0000
    43 H17        119.8352    27.3946    79.0174 H            1 CP81266   0.0000
    44 H18        115.7392    29.2907    77.3039 H            1 CP81266   0.0000
    45 H19        118.4449    26.1117    77.5258 H            1 CP81266   0.0000
    46 H20        116.3946    27.0563    76.6662 H            1 CP81266   0.0000
@<TRIPOS>BOND
     1    1    2      ar
     2    1    3       1
     3    1    4      ar
     4    2    5      ar
     5    2    6       1
     6    3    7       1
     7    3    8       1
     8    4    9      ar
     9    5   10      ar
    10    6    7       1
    11    7   11       2
    12    7   12       2
    13    9   10      ar
    14   10   13       1
    15   13   14       1
    16   13   15       1
    17   14   16       1
    18   15   17       1
    19   16   18       1
    20   16   19      am
    21   17   19       1
    22   18   20       1
    23   19   21       2
    24   20   22      ar
    25   20   23      ar
    26   22   24      ar
    27   23   25      ar
    28   24   26      ar
    29   25   26      ar
    30    4   27       1
    31    5   28       1
    32    6   29       1
    33    6   30       1
    34    8   31       1
    35    8   32       1
    36    8   33       1
    37    9   34       1
    38   13   35       1
    39   14   36       1
    40   14   37       1
    41   17   38       1
    42   17   39       1
    43   18   40       1
    44   18   41       1
    45   22   42       1
    46   23   43       1
    47   24   44       1
    48   25   45       1
    49   26   46       1
@<TRIPOS>SUBSTRUCTURE
     1 CP81266     1 GROUP             4 A     CP8     0 **** CP8 A1266
