@<TRIPOS>MOLECULE
2yww_ATP_4_ligand
   43    45     1     0     0
SMALL
NO_CHARGES


@<TRIPOS>ATOM
     1 PG          45.4080    29.7490    33.2030 P.3          1 ATP401   0.0000
     2 O1G         46.4300    28.7450    33.5560 O.co2        1 ATP401   0.0000
     3 O2G         45.3670    31.2160    33.8490 O.co2        1 ATP401  -1.0000
     4 O3G         44.0870    29.2320    32.4800 O.co2        1 ATP401  -1.0000
     5 PB          44.4190    27.6900    34.8140 P.3          1 ATP401   0.0000
     6 O1B         45.5610    26.9260    35.3630 O.co2        1 ATP401   0.0000
     7 O2B         42.9320    27.1190    34.7860 O.co2        1 ATP401  -1.0000
     8 O3B         44.6410    29.3290    34.6320 O.3          1 ATP401   0.0000
     9 PA          42.5970    28.4510    36.8070 P.3          1 ATP401   0.0000
    10 O1A         42.2970    29.8970    36.8290 O.co2        1 ATP401   0.0000
    11 O2A         41.6780    27.3330    37.4900 O.co2        1 ATP401  -1.0000
    12 O3A         44.1600    28.0040    36.4480 O.3          1 ATP401   0.0000
    13 O5'         43.0140    28.6580    38.4060 O.3          1 ATP401   0.0000
    14 C5'         44.1300    29.5690    38.6220 C.3          1 ATP401   0.0000
    15 C4'         44.4060    29.7760    40.1420 C.3          1 ATP401   0.0000
    16 O4'         43.3730    30.6040    40.7880 O.3          1 ATP401   0.0000
    17 C3'         44.4480    28.4390    40.9370 C.3          1 ATP401   0.0000
    18 O3'         45.5920    28.4270    41.8130 O.3          1 ATP401   0.0000
    19 C2'         43.1210    28.4430    41.7010 C.3          1 ATP401   0.0000
    20 O2'         43.1450    27.5900    42.8620 O.3          1 ATP401   0.0000
    21 C1'         42.9540    29.9320    42.0170 C.3          1 ATP401   0.0000
    22 N9          41.5460    30.2440    42.3400 N.pl3        1 ATP401   0.0000
    23 C8          40.4730    30.1990    41.4830 C.2          1 ATP401   0.0000
    24 N7          39.3690    30.4570    42.1270 N.2          1 ATP401   0.0000
    25 C5          39.6600    30.7690    43.4090 C.ar         1 ATP401   0.0000
    26 C6          38.9030    31.1760    44.5530 C.ar         1 ATP401   0.0000
    27 N6          37.5290    31.3320    44.4730 N.pl3        1 ATP401   0.0000
    28 N1          39.5550    31.4030    45.7170 N.ar         1 ATP401   0.0000
    29 C2          40.8840    31.2260    45.8280 C.ar         1 ATP401   0.0000
    30 N3          41.6340    30.8800    44.7760 N.ar         1 ATP401   0.0000
    31 C4          41.0700    30.6310    43.5670 C.ar         1 ATP401   0.0000
    32 H5'1        43.9142    30.4528    38.2068 H            1 ATP401   0.0000
    33 H5'2        44.9486    29.1893    38.1910 H            1 ATP401   0.0000
    34 H4'         45.2892    30.2337    40.2445 H            1 ATP401   0.0000
    35 H3'         44.4842    27.6623    40.3082 H            1 ATP401   0.0000
    36 H5          45.3374    28.8143    42.6991 H            1 ATP401   0.0000
    37 H2'         42.3860    28.1497    41.0897 H            1 ATP401   0.0000
    38 H7          42.4411    26.8854    42.7725 H            1 ATP401   0.0000
    39 H1'         43.5500    30.1942    42.7759 H            1 ATP401   0.0000
    40 H9          40.5305    29.9972    40.5053 H            1 ATP401   0.0000
    41 H10         37.0104    31.6169    45.2791 H            1 ATP401   0.0000
    42 H11         37.0557    31.1597    43.6091 H            1 ATP401   0.0000
    43 H12         41.3213    31.3562    46.7178 H            1 ATP401   0.0000
@<TRIPOS>BOND
     1    1    2      ar
     2    1    3      ar
     3    1    4      ar
     4    1    8       1
     5    5    6      ar
     6    5    7      ar
     7    5    8       1
     8    5   12       1
     9    9   10      ar
    10    9   11      ar
    11    9   12       1
    12    9   13       1
    13   13   14       1
    14   14   15       1
    15   15   16       1
    16   15   17       1
    17   16   21       1
    18   17   18       1
    19   17   19       1
    20   19   20       1
    21   19   21       1
    22   21   22       1
    23   22   23       1
    24   22   31       1
    25   23   24       2
    26   24   25       1
    27   25   26      ar
    28   25   31      ar
    29   26   27       1
    30   26   28      ar
    31   28   29      ar
    32   29   30      ar
    33   30   31      ar
    34   29   43       1
    35   27   42       1
    36   27   41       1
    37   23   40       1
    38   14   32       1
    39   14   33       1
    40   15   34       1
    41   17   35       1
    42   18   36       1
    43   19   37       1
    44   20   38       1
    45   21   39       1
@<TRIPOS>SUBSTRUCTURE
     1 ATP401      1 GROUP             4 B     ATP     0 **** ATP B 401
