@<TRIPOS>MOLECULE
3rq8_AP5_1_ligand
   81    86     1     0     0
SMALL
NO_CHARGES


@<TRIPOS>ATOM
     1 PA           9.7260   -22.5350   -23.4870 P.3          1 AP5278   0.0000
     2 O1A         10.9930   -23.3000   -23.5060 O.co2        1 AP5278   0.0000
     3 O2A          8.6920   -23.1350   -22.6000 O.co2        1 AP5278  -1.0000
     4 O3A         10.1210   -21.0240   -23.0840 O.3          1 AP5278   0.0000
     5 PB           9.4650   -20.0860   -21.9290 P.3          1 AP5278   0.0000
     6 O1B          8.9820   -20.9480   -20.7970 O.co2        1 AP5278   0.0000
     7 O2B          8.3340   -19.1360   -22.3120 O.co2        1 AP5278  -1.0000
     8 O3B         10.6680   -19.1180   -21.5150 O.3          1 AP5278   0.0000
     9 PG          11.4790   -19.1830   -20.1220 P.3          1 AP5278   0.0000
    10 O1G         12.6660   -18.2660   -20.1540 O.co2        1 AP5278   0.0000
    11 O2G         11.9230   -20.6380   -20.3000 O.co2        1 AP5278  -1.0000
    12 O3G         10.5580   -19.1170   -18.8310 O.3          1 AP5278   0.0000
    13 PD          10.7630   -20.3400   -17.7530 P.3          1 AP5278   0.0000
    14 O1D          9.4090   -20.8210   -17.2430 O.co2        1 AP5278   0.0000
    15 O2D         11.6080   -19.7720   -16.6320 O.co2        1 AP5278  -1.0000
    16 O3D         11.5900   -21.4890   -18.6230 O.3          1 AP5278   0.0000
    17 PE          13.2050   -21.5830   -18.5430 P.3          1 AP5278   0.0000
    18 O1E         13.4300   -22.7920   -17.6490 O.co2        1 AP5278   0.0000
    19 O2E         13.7010   -20.3440   -17.8150 O.co2        1 AP5278  -1.0000
    20 O5F          9.1610   -22.4180   -24.9600 O.3          1 AP5278   0.0000
    21 C5F         10.0020   -22.0660   -26.0410 C.3          1 AP5278   0.0000
    22 C4F          9.0840   -22.1440   -27.2450 C.3          1 AP5278   0.0000
    23 O4F          9.7200   -21.7060   -28.4190 O.3          1 AP5278   0.0000
    24 C3F          8.6200   -23.5640   -27.5480 C.3          1 AP5278   0.0000
    25 O3F          7.3330   -23.5400   -28.1590 O.3          1 AP5278   0.0000
    26 C2F          9.6810   -24.0530   -28.5220 C.3          1 AP5278   0.0000
    27 O2F          9.2680   -25.1490   -29.3290 O.3          1 AP5278   0.0000
    28 C1F          9.8610   -22.7810   -29.3380 C.3          1 AP5278   0.0000
    29 N9A         11.1900   -22.6860   -29.9230 N.pl3        1 AP5278   0.0000
    30 C8A         12.3590   -22.3290   -29.2880 C.2          1 AP5278   0.0000
    31 N7A         13.3910   -22.3410   -30.2150 N.2          1 AP5278   0.0000
    32 C5A         12.8530   -22.7020   -31.4050 C.ar         1 AP5278   0.0000
    33 C6A         13.4480   -22.9130   -32.6400 C.ar         1 AP5278   0.0000
    34 N6A         14.7560   -22.7160   -32.7170 N.pl3        1 AP5278   0.0000
    35 N1A         12.6840   -23.3080   -33.7140 N.ar         1 AP5278   0.0000
    36 C2A         11.3310   -23.4960   -33.5370 C.ar         1 AP5278   0.0000
    37 N3A         10.7510   -23.3060   -32.2780 N.ar         1 AP5278   0.0000
    38 C4A         11.5000   -22.9390   -31.2450 C.ar         1 AP5278   0.0000
    39 O5J         14.0230   -21.9570   -19.9260 O.3          1 AP5278   0.0000
    40 C5J         15.4280   -22.3000   -19.9300 C.3          1 AP5278   0.0000
    41 C4J         15.7490   -23.7180   -19.3850 C.3          1 AP5278   0.0000
    42 O4J         15.3460   -24.7480   -20.2870 O.3          1 AP5278   0.0000
    43 C3J         17.2360   -24.0200   -19.1420 C.3          1 AP5278   0.0000
    44 O3J         17.3990   -24.5760   -17.8510 O.3          1 AP5278   0.0000
    45 C2J         17.6840   -25.0140   -20.2280 C.3          1 AP5278   0.0000
    46 O2J         18.5950   -26.0000   -19.7800 O.3          1 AP5278   0.0000
    47 C1J         16.3880   -25.6680   -20.6970 C.3          1 AP5278   0.0000
    48 N9B         16.3170   -25.9800   -22.1700 N.pl3        1 AP5278   0.0000
    49 C8B         15.2810   -25.5980   -22.9930 C.2          1 AP5278   0.0000
    50 N7B         15.5210   -26.0290   -24.2440 N.2          1 AP5278   0.0000
    51 C5B         16.6950   -26.6920   -24.2550 C.ar         1 AP5278   0.0000
    52 C6B         17.3810   -27.3130   -25.2970 C.ar         1 AP5278   0.0000
    53 N6B         16.8090   -27.3830   -26.4940 N.pl3        1 AP5278   0.0000
    54 N1B         18.6010   -27.9150   -25.0470 N.ar         1 AP5278   0.0000
    55 C2B         19.1260   -27.8930   -23.7530 C.ar         1 AP5278   0.0000
    56 N3B         18.4350   -27.2710   -22.7150 N.ar         1 AP5278   0.0000
    57 C4B         17.2220   -26.6720   -22.9580 C.ar         1 AP5278   0.0000
    58 H5F1        10.7610   -22.7113   -26.1280 H            1 AP5278   0.0000
    59 H5F2        10.3629   -21.1405   -25.9262 H            1 AP5278   0.0000
    60 H4F          8.2821   -21.5703   -27.0781 H            1 AP5278   0.0000
    61 H3F          8.6117   -24.1222   -26.7183 H            1 AP5278   0.0000
    62 H5           6.6274   -23.5836   -27.4518 H            1 AP5278   0.0000
    63 H2F         10.5250   -24.2772   -28.0347 H            1 AP5278   0.0000
    64 H7           8.3282   -25.3989   -29.0961 H            1 AP5278   0.0000
    65 H1F          9.1621   -22.7232   -30.0509 H            1 AP5278   0.0000
    66 H8A         12.4489   -22.0992   -28.3189 H            1 AP5278   0.0000
    67 H6A1        15.2323   -22.8548   -33.5853 H            1 AP5278   0.0000
    68 H6A2        15.2669   -22.4286   -31.9068 H            1 AP5278   0.0000
    69 H2A         10.7608   -23.7695   -34.3117 H            1 AP5278   0.0000
    70 H5J1        15.9137   -21.6319   -19.3663 H            1 AP5278   0.0000
    71 H5J2        15.7597   -22.2454   -20.8718 H            1 AP5278   0.0000
    72 H4J         15.2571   -23.8433   -18.5234 H            1 AP5278   0.0000
    73 H3J         17.7682   -23.1766   -19.2160 H            1 AP5278   0.0000
    74 H17         17.8005   -25.4885   -17.9293 H            1 AP5278   0.0000
    75 H2J         18.0924   -24.5092   -20.9885 H            1 AP5278   0.0000
    76 H19         18.8351   -26.6025   -20.5412 H            1 AP5278   0.0000
    77 H1J         16.2679   -26.5219   -20.1906 H            1 AP5278   0.0000
    78 H8B         14.4753   -25.0804   -22.7050 H            1 AP5278   0.0000
    79 H6B1        17.2882   -27.8254   -27.2521 H            1 AP5278   0.0000
    80 H6B2        15.8992   -26.9933   -26.6370 H            1 AP5278   0.0000
    81 H2B         20.0073   -28.3283   -23.5694 H            1 AP5278   0.0000
@<TRIPOS>BOND
     1    1    2      ar
     2    1    3      ar
     3    1    4       1
     4    1   20       1
     5    4    5       1
     6    5    6      ar
     7    5    7      ar
     8    5    8       1
     9    8    9       1
    10    9   10      ar
    11    9   11      ar
    12    9   12       1
    13   12   13       1
    14   13   14      ar
    15   13   15      ar
    16   13   16       1
    17   16   17       1
    18   17   18      ar
    19   17   19      ar
    20   17   39       1
    21   20   21       1
    22   21   22       1
    23   22   23       1
    24   22   24       1
    25   23   28       1
    26   24   25       1
    27   24   26       1
    28   26   27       1
    29   26   28       1
    30   28   29       1
    31   29   30       1
    32   29   38       1
    33   30   31       2
    34   31   32       1
    35   32   33      ar
    36   32   38      ar
    37   33   34       1
    38   33   35      ar
    39   35   36      ar
    40   36   37      ar
    41   37   38      ar
    42   39   40       1
    43   40   41       1
    44   41   42       1
    45   41   43       1
    46   42   47       1
    47   43   44       1
    48   43   45       1
    49   45   46       1
    50   45   47       1
    51   47   48       1
    52   48   49       1
    53   48   57       1
    54   49   50       2
    55   50   51       1
    56   51   52      ar
    57   51   57      ar
    58   52   53       1
    59   52   54      ar
    60   54   55      ar
    61   55   56      ar
    62   56   57      ar
    63   55   81       1
    64   53   80       1
    65   53   79       1
    66   49   78       1
    67   47   77       1
    68   21   58       1
    69   21   59       1
    70   22   60       1
    71   24   61       1
    72   25   62       1
    73   26   63       1
    74   27   64       1
    75   28   65       1
    76   30   66       1
    77   34   67       1
    78   34   68       1
    79   36   69       1
    80   40   70       1
    81   40   71       1
    82   41   72       1
    83   43   73       1
    84   44   74       1
    85   45   75       1
    86   46   76       1
@<TRIPOS>SUBSTRUCTURE
     1 AP5278      1 GROUP             4 A     AP5     0 **** AP5 A 278
