@<TRIPOS>MOLECULE
4cok_TPP_2_ligand
   43    44     1     0     0
SMALL
NO_CHARGES


@<TRIPOS>ATOM
     1 N1'          2.9830    -0.0480   -44.9890 N.ar         1 TPP600   1.0000
     2 C2'          3.2660     1.2170   -44.5700 C.ar         1 TPP600   0.0000
     3 CM2          3.5520     1.4440   -43.1130 C.3          1 TPP600   0.0000
     4 N3'          3.2730     2.2440   -45.4360 N.ar         1 TPP600   0.0000
     5 C4'          3.0280     2.0780   -46.7470 C.ar         1 TPP600   0.0000
     6 N4'          3.0680     3.1800   -47.6310 N.pl3        1 TPP600   0.0000
     7 C5'          2.6620     0.8120   -47.2070 C.ar         1 TPP600   0.0000
     8 C6'          2.6910    -0.2610   -46.3040 C.ar         1 TPP600   0.0000
     9 C7'          2.2830     0.5580   -48.7140 C.3          1 TPP600   0.0000
    10 N3           1.0540     1.3660   -49.1270 N.2          1 TPP600   1.0000
    11 C2           1.1970     2.5480   -49.8200 C.2          1 TPP600   0.0000
    12 S1          -0.4070     3.2690   -50.1590 S.3          1 TPP600   0.0000
    13 C5          -1.1520     1.8620   -49.3710 C.2          1 TPP600   0.0000
    14 C4          -0.1670     0.8970   -48.9980 C.2          1 TPP600   0.0000
    15 CM4         -0.5300    -0.4730   -48.2960 C.3          1 TPP600   0.0000
    16 C6          -2.6310     1.6920   -49.3200 C.3          1 TPP600   0.0000
    17 C7          -3.3030     2.9440   -48.8380 C.3          1 TPP600   0.0000
    18 O7          -4.7210     2.5860   -48.7960 O.3          1 TPP600   0.0000
    19 PA          -5.9110     3.5110   -48.3310 P.3          1 TPP600   0.0000
    20 O1A         -5.4540     4.2700   -47.1070 O.co2        1 TPP600   0.0000
    21 O2A         -7.1690     2.7170   -48.2600 O.co2        1 TPP600  -1.0000
    22 O3A         -5.9010     4.6280   -49.4680 O.3          1 TPP600   0.0000
    23 PB          -6.7120     4.6040   -50.9320 P.3          1 TPP600   0.0000
    24 O1B         -7.6560     3.3980   -51.0130 O.co2        1 TPP600   0.0000
    25 O2B         -5.7980     4.6720   -51.8830 O.co2        1 TPP600  -1.0000
    26 O3B         -7.5260     5.9270   -50.7730 O.co2        1 TPP600  -1.0000
    27 HM21         3.7407     2.4136   -42.9575 H            1 TPP600   0.0000
    28 HM22         2.7587     1.1676   -42.5706 H            1 TPP600   0.0000
    29 HM23         4.3470     0.9019   -42.8410 H            1 TPP600   0.0000
    30 H4'1         2.8843     3.0467   -48.6049 H            1 TPP600   0.0000
    31 H4'2         3.2800     4.0931   -47.2826 H            1 TPP600   0.0000
    32 H6'          2.4965    -1.1874   -46.6263 H            1 TPP600   0.0000
    33 H7'1         2.0897    -0.4149   -48.8408 H            1 TPP600   0.0000
    34 H7'2         3.0549     0.8225   -49.2921 H            1 TPP600   0.0000
    35 H9           2.0720     2.9467   -50.0947 H            1 TPP600   0.0000
    36 HM41        -1.5203    -0.6093   -48.3230 H            1 TPP600   0.0000
    37 HM42        -0.0770    -1.2240   -48.7764 H            1 TPP600   0.0000
    38 HM43        -0.2223    -0.4519   -47.3448 H            1 TPP600   0.0000
    39 H13         -2.8521     0.9420   -48.6966 H            1 TPP600   0.0000
    40 H14         -2.9663     1.4736   -50.2364 H            1 TPP600   0.0000
    41 H15         -3.1452     3.7000   -49.4733 H            1 TPP600   0.0000
    42 H16         -2.9728     3.1981   -47.9289 H            1 TPP600   0.0000
    43 H1'          2.9893    -0.8099   -44.3413 H            1 TPP600   0.0000
@<TRIPOS>BOND
     1    1    2      ar
     2    1    8      ar
     3    2    3       1
     4    2    4      ar
     5    4    5      ar
     6    5    6       1
     7    5    7      ar
     8    7    8      ar
     9    7    9       1
    10    9   10       1
    11   10   11       2
    12   10   14       1
    13   11   12       1
    14   12   13       1
    15   13   14       2
    16   13   16       1
    17   14   15       1
    18   16   17       1
    19   17   18       1
    20   18   19       1
    21   19   20      ar
    22   19   21      ar
    23   19   22       1
    24   22   23       1
    25   23   24      ar
    26   23   25      ar
    27   23   26      ar
    28    3   27       1
    29    3   28       1
    30    3   29       1
    31    6   30       1
    32    6   31       1
    33    8   32       1
    34    9   33       1
    35    9   34       1
    36   11   35       1
    37   15   36       1
    38   15   37       1
    39   15   38       1
    40   16   39       1
    41   16   40       1
    42   17   41       1
    43   17   42       1
    44    1   43       1
@<TRIPOS>SUBSTRUCTURE
     1 TPP600      1 GROUP             4 B     TPP     0 **** TPP B 600
