@<TRIPOS>MOLECULE
2cbj_OAN_2_ligand
   44    45     1     0     0
SMALL
NO_CHARGES


@<TRIPOS>ATOM
     1 CAH          4.1290    -1.4760    15.9440 C.3          1 OAN1625   0.0000
     2 CAG          3.7860     0.0440    16.0550 C.2          1 OAN1625   0.0000
     3 OAN          4.6120     0.9060    15.7540 O.2          1 OAN1625   0.0000
     4 NAI          2.5410     0.3150    16.4720 N.am         1 OAN1625   0.0000
     5 CAB          1.9610     1.6640    16.6080 C.3          1 OAN1625   0.0000
     6 CAC          1.6400     2.1370    15.1840 C.3          1 OAN1625   0.0000
     7 OAJ          0.3080     1.7780    14.8620 O.3          1 OAN1625   0.0000
     8 CAD          1.8070     3.6430    15.0000 C.3          1 OAN1625   0.0000
     9 OAK          1.5430     3.9590    13.6460 O.3          1 OAN1625   0.0000
    10 CAE          3.2410     4.0310    15.3090 C.3          1 OAN1625   0.0000
    11 CAF          3.5900     5.5040    15.0490 C.3          1 OAN1625   0.0000
    12 OAM          2.6850     6.4110    15.7540 O.3          1 OAN1625   0.0000
    13 OAL          3.4910     3.7500    16.7000 O.3          1 OAN1625   0.0000
    14 CAA          2.8780     2.6990    17.3220 C.2          1 OAN1625   0.0000
    15 NAY          3.0840     2.5990    18.6200 N.2          1 OAN1625   0.0000
    16 OAQ          3.8810     3.5100    19.2670 O.3          1 OAN1625   0.0000
    17 CAP          3.2380     4.0050    20.3610 C.2          1 OAN1625   0.0000
    18 OAR          2.1840     3.5000    20.7490 O.2          1 OAN1625   0.0000
    19 NAO          3.7740     5.0500    20.9980 N.am         1 OAN1625   0.0000
    20 CAS          3.1120     5.5130    22.0690 C.ar         1 OAN1625   0.0000
    21 CAT          3.2160     4.8520    23.3090 C.ar         1 OAN1625   0.0000
    22 CAU          2.5030     5.3120    24.4240 C.ar         1 OAN1625   0.0000
    23 CAV          1.6790     6.4300    24.3020 C.ar         1 OAN1625   0.0000
    24 CAW          1.5740     7.0800    23.0680 C.ar         1 OAN1625   0.0000
    25 CAX          2.2860     6.6260    21.9540 C.ar         1 OAN1625   0.0000
    26 HAH1         3.3386    -2.0178    16.2299 H            1 OAN1625   0.0000
    27 HAH2         4.3597    -1.6973    14.9965 H            1 OAN1625   0.0000
    28 HAH3         4.9082    -1.6859    16.5346 H            1 OAN1625   0.0000
    29 HAI          1.9577    -0.4615    16.7104 H            1 OAN1625   0.0000
    30 HAB          1.1048     1.5918    17.1195 H            1 OAN1625   0.0000
    31 HAC          2.2558     1.6704    14.5492 H            1 OAN1625   0.0000
    32 HAJ          0.2340     1.6204    13.8773 H            1 OAN1625   0.0000
    33 HAD          1.1777     4.1370    15.5999 H            1 OAN1625   0.0000
    34 HAK          0.7754     4.5980    13.5964 H            1 OAN1625   0.0000
    35 HAE          3.8488     3.4601    14.7571 H            1 OAN1625   0.0000
    36 HAF1         3.5269     5.6828    14.0671 H            1 OAN1625   0.0000
    37 HAF2         4.5252     5.6744    15.3594 H            1 OAN1625   0.0000
    38 HAM          2.2121     6.9917    15.0913 H            1 OAN1625   0.0000
    39 HAO          4.6290     5.4677    20.6907 H            1 OAN1625   0.0000
    40 HAT          3.8038     4.0475    23.3940 H            1 OAN1625   0.0000
    41 HAU          2.5847     4.8410    25.3024 H            1 OAN1625   0.0000
    42 HAV          1.1660     6.7652    25.0922 H            1 OAN1625   0.0000
    43 HAW          0.9813     7.8807    22.9814 H            1 OAN1625   0.0000
    44 HAX          2.2017     7.0998    21.0774 H            1 OAN1625   0.0000
@<TRIPOS>BOND
     1    1    2       1
     2    2    3       2
     3    2    4      am
     4    4    5       1
     5    5    6       1
     6    5   14       1
     7    6    7       1
     8    6    8       1
     9    8    9       1
    10    8   10       1
    11   10   11       1
    12   10   13       1
    13   11   12       1
    14   13   14       1
    15   14   15       2
    16   15   16       1
    17   16   17       1
    18   17   18       2
    19   17   19      am
    20   19   20       1
    21   20   21      ar
    22   20   25      ar
    23   21   22      ar
    24   22   23      ar
    25   23   24      ar
    26   24   25      ar
    27    1   26       1
    28    1   27       1
    29    1   28       1
    30    4   29       1
    31    5   30       1
    32    6   31       1
    33    7   32       1
    34    8   33       1
    35    9   34       1
    36   10   35       1
    37   11   36       1
    38   11   37       1
    39   12   38       1
    40   19   39       1
    41   21   40       1
    42   22   41       1
    43   23   42       1
    44   24   43       1
    45   25   44       1
@<TRIPOS>SUBSTRUCTURE
     1 OAN1625     1 GROUP             4 B     OAN     0 **** OAN B1625
