@<TRIPOS>MOLECULE
3zhb_NAP_1_ligand
   73    77     1     0     0
SMALL
NO_CHARGES


@<TRIPOS>ATOM
     1 PA         -29.7640   -37.3770    21.9620 P.3          1 NAP1307   0.0000
     2 O1A        -30.0560   -37.1190    23.4670 O.co2        1 NAP1307   0.0000
     3 O2A        -30.8340   -37.4800    20.8850 O.co2        1 NAP1307  -1.0000
     4 O5B        -28.7130   -36.2930    21.4440 O.3          1 NAP1307   0.0000
     5 C5B        -28.7350   -36.2880    20.0360 C.3          1 NAP1307   0.0000
     6 C4B        -27.8800   -35.1850    19.5220 C.3          1 NAP1307   0.0000
     7 O4B        -28.3660   -35.1050    18.2020 O.3          1 NAP1307   0.0000
     8 C3B        -28.0930   -33.8150    20.1580 C.3          1 NAP1307   0.0000
     9 O3B        -26.8630   -33.1600    20.5050 O.3          1 NAP1307   0.0000
    10 C2B        -28.8090   -33.0620    19.0550 C.3          1 NAP1307   0.0000
    11 O2B        -28.6160   -31.6400    19.1110 O.3          1 NAP1307   0.0000
    12 C1B        -28.2120   -33.7520    17.8610 C.3          1 NAP1307   0.0000
    13 N9A        -28.8870   -33.6190    16.5830 N.pl3        1 NAP1307   0.0000
    14 C8A        -29.8930   -34.3940    16.0970 C.2          1 NAP1307   0.0000
    15 N7A        -30.2480   -33.9770    14.8430 N.2          1 NAP1307   0.0000
    16 C5A        -29.4100   -32.9500    14.5690 C.ar         1 NAP1307   0.0000
    17 C6A        -29.2230   -32.0620    13.4460 C.ar         1 NAP1307   0.0000
    18 N6A        -30.0380   -32.3080    12.4430 N.pl3        1 NAP1307   0.0000
    19 N1A        -28.2860   -31.0910    13.4450 N.ar         1 NAP1307   0.0000
    20 C2A        -27.4980   -30.9480    14.5500 C.ar         1 NAP1307   0.0000
    21 N3A        -27.5980   -31.7210    15.6610 N.ar         1 NAP1307   0.0000
    22 C4A        -28.5140   -32.7190    15.6960 C.ar         1 NAP1307   0.0000
    23 O3         -28.9940   -38.7890    21.6940 O.3          1 NAP1307   0.0000
    24 PN         -27.6430   -39.2270    22.4610 P.3          1 NAP1307   0.0000
    25 O1N        -28.1030   -40.2610    23.4520 O.co2        1 NAP1307   0.0000
    26 O2N        -26.6520   -38.1410    22.9370 O.co2        1 NAP1307  -1.0000
    27 O5D        -27.1630   -39.8500    21.0750 O.3          1 NAP1307   0.0000
    28 C5D        -25.9270   -39.5760    20.3780 C.3          1 NAP1307   0.0000
    29 C4D        -25.3820   -40.9100    19.8400 C.3          1 NAP1307   0.0000
    30 O4D        -24.9490   -41.7290    20.9410 O.3          1 NAP1307   0.0000
    31 C3D        -26.4770   -41.6820    19.1170 C.3          1 NAP1307   0.0000
    32 O3D        -26.0190   -42.2050    17.8930 O.3          1 NAP1307   0.0000
    33 C2D        -26.8430   -42.7740    20.0690 C.3          1 NAP1307   0.0000
    34 O2D        -27.3280   -43.9000    19.3560 O.3          1 NAP1307   0.0000
    35 C1D        -25.5040   -43.0060    20.7180 C.3          1 NAP1307   0.0000
    36 N1N        -25.6180   -43.8020    21.9160 N.ar         1 NAP1307   1.0000
    37 C2N        -26.3930   -43.3770    22.9000 C.ar         1 NAP1307   0.0000
    38 C3N        -26.5350   -44.1440    24.0540 C.ar         1 NAP1307   0.0000
    39 C7N        -27.4190   -43.6610    25.1550 C.2          1 NAP1307   0.0000
    40 O7N        -28.0410   -44.5250    25.7650 O.2          1 NAP1307   0.0000
    41 N7N        -27.4890   -42.3400    25.3940 N.am         1 NAP1307   0.0000
    42 C4N        -25.8710   -45.3580    24.1690 C.ar         1 NAP1307   0.0000
    43 C5N        -25.0770   -45.7720    23.1180 C.ar         1 NAP1307   0.0000
    44 C6N        -24.9610   -44.9640    21.9970 C.ar         1 NAP1307   0.0000
    45 P2B        -29.8910   -30.7650    19.6670 P.3          1 NAP1307   0.0000
    46 O1X        -31.1670   -31.3820    19.1060 O.co2        1 NAP1307   0.0000
    47 O2X        -29.8050   -31.0130    21.1330 O.co2        1 NAP1307  -1.0000
    48 O3X        -29.4690   -29.3470    19.2560 O.co2        1 NAP1307  -1.0000
    49 H5B1       -29.6741   -36.1551    19.7192 H            1 NAP1307   0.0000
    50 H5B2       -28.3890   -37.1623    19.6956 H            1 NAP1307   0.0000
    51 H4B        -26.9137   -35.4421    19.5352 H            1 NAP1307   0.0000
    52 H3B        -28.6821   -33.8942    20.9622 H            1 NAP1307   0.0000
    53 H5         -26.9845   -32.1692    20.4451 H            1 NAP1307   0.0000
    54 H2B        -29.7873   -33.2644    19.0983 H            1 NAP1307   0.0000
    55 H1B        -27.2431   -33.5214    17.7712 H            1 NAP1307   0.0000
    56 H8A        -30.3130   -35.1587    16.5857 H            1 NAP1307   0.0000
    57 H6A1       -29.9929   -31.7508    11.6139 H            1 NAP1307   0.0000
    58 H6A2       -30.7026   -33.0522    12.5097 H            1 NAP1307   0.0000
    59 H2A        -26.8034   -30.2286    14.5405 H            1 NAP1307   0.0000
    60 H5D1       -25.2655   -39.1676    21.0070 H            1 NAP1307   0.0000
    61 H5D2       -26.0971   -38.9476    19.6190 H            1 NAP1307   0.0000
    62 H4D        -24.6168   -40.7405    19.2189 H            1 NAP1307   0.0000
    63 H3D        -27.2660   -41.0880    18.9600 H            1 NAP1307   0.0000
    64 H16        -25.7176   -41.4563    17.3025 H            1 NAP1307   0.0000
    65 H2D        -27.5153   -42.4563    20.7377 H            1 NAP1307   0.0000
    66 H18        -26.6188   -44.2313    18.7337 H            1 NAP1307   0.0000
    67 H1D        -24.9200   -43.4944    20.0696 H            1 NAP1307   0.0000
    68 H2N        -26.8766   -42.5058    22.8155 H            1 NAP1307   0.0000
    69 H7N1       -28.0752   -41.9949    26.1270 H            1 NAP1307   0.0000
    70 H7N2       -26.9549   -41.7024    24.8388 H            1 NAP1307   0.0000
    71 H4N        -25.9654   -45.9182    24.9920 H            1 NAP1307   0.0000
    72 H5N        -24.5910   -46.6447    23.1647 H            1 NAP1307   0.0000
    73 H6N        -24.3778   -45.2544    21.2384 H            1 NAP1307   0.0000
@<TRIPOS>BOND
     1    1    2      ar
     2    1    3      ar
     3    1    4       1
     4    1   23       1
     5    4    5       1
     6    5    6       1
     7    6    7       1
     8    6    8       1
     9    7   12       1
    10    8    9       1
    11    8   10       1
    12   10   11       1
    13   10   12       1
    14   11   45       1
    15   12   13       1
    16   13   14       1
    17   13   22       1
    18   14   15       2
    19   15   16       1
    20   16   17      ar
    21   16   22      ar
    22   17   18       1
    23   17   19      ar
    24   19   20      ar
    25   20   21      ar
    26   21   22      ar
    27   23   24       1
    28   24   25      ar
    29   24   26      ar
    30   24   27       1
    31   27   28       1
    32   28   29       1
    33   29   30       1
    34   29   31       1
    35   30   35       1
    36   31   32       1
    37   31   33       1
    38   33   34       1
    39   33   35       1
    40   35   36       1
    41   36   37      ar
    42   36   44      ar
    43   37   38      ar
    44   38   39       1
    45   38   42      ar
    46   39   40       2
    47   39   41      am
    48   42   43      ar
    49   43   44      ar
    50   45   46      ar
    51   45   47      ar
    52   45   48      ar
    53   43   72       1
    54    5   49       1
    55    5   50       1
    56    6   51       1
    57    8   52       1
    58    9   53       1
    59   10   54       1
    60   12   55       1
    61   14   56       1
    62   18   57       1
    63   18   58       1
    64   20   59       1
    65   44   73       1
    66   28   60       1
    67   28   61       1
    68   29   62       1
    69   31   63       1
    70   32   64       1
    71   33   65       1
    72   34   66       1
    73   35   67       1
    74   37   68       1
    75   41   69       1
    76   41   70       1
    77   42   71       1
@<TRIPOS>SUBSTRUCTURE
     1 NAP1307     1 GROUP             4 A     NAP     0 **** NAP A1307
