@<TRIPOS>MOLECULE
5cae_COA_1_ligand
   80    82     1     0     0
SMALL
NO_CHARGES


@<TRIPOS>ATOM
     1 N1A         19.0490    13.9410    26.7760 N.ar         1 COA401   0.0000
     2 C2A         19.8930    13.3780    27.6450 C.ar         1 COA401   0.0000
     3 N3A         19.6180    12.6470    28.7280 N.ar         1 COA401   0.0000
     4 C4A         18.2950    12.5090    28.8900 C.ar         1 COA401   0.0000
     5 C5A         17.3070    13.0240    28.0770 C.ar         1 COA401   0.0000
     6 C6A         17.7190    13.7820    26.9630 C.ar         1 COA401   0.0000
     7 N6A         16.8810    14.3460    26.0920 N.pl3        1 COA401   0.0000
     8 N7A         16.0440    12.6760    28.5470 N.2          1 COA401   0.0000
     9 C8A         16.3100    11.9700    29.6220 C.2          1 COA401   0.0000
    10 N9A         17.6440    11.8310    29.8930 N.pl3        1 COA401   0.0000
    11 C1B         18.2530    11.1460    31.0260 C.3          1 COA401   0.0000
    12 C2B         17.3220    10.9070    32.2070 C.3          1 COA401   0.0000
    13 O2B         17.2310    12.0800    33.0070 O.3          1 COA401   0.0000
    14 C3B         18.0870     9.7950    32.9270 C.3          1 COA401   0.0000
    15 O3B         19.1020    10.3890    33.7640 O.3          1 COA401   0.0000
    16 P3B         18.9660    10.6520    35.3500 P.3          1 COA401   0.0000
    17 O7A         18.5840     9.3940    36.0540 O.co2        1 COA401   0.0000
    18 O8A         20.3200    11.1940    35.8150 O.co2        1 COA401  -1.0000
    19 O9A         17.9310    11.7570    35.4910 O.co2        1 COA401  -1.0000
    20 C4B         18.8190     9.0470    31.8000 C.3          1 COA401   0.0000
    21 O4B         18.6610     9.8610    30.6180 O.3          1 COA401   0.0000
    22 C5B         18.3210     7.6520    31.5230 C.3          1 COA401   0.0000
    23 O5B         18.8240     6.7830    32.5550 O.3          1 COA401   0.0000
    24 P1A         17.8670     5.7330    33.2990 P.3          1 COA401   0.0000
    25 O1A         16.5490     6.2880    33.6810 O.co2        1 COA401   0.0000
    26 O2A         18.6240     5.2640    34.5380 O.co2        1 COA401  -1.0000
    27 O3A         17.6670     4.4740    32.3430 O.3          1 COA401   0.0000
    28 P2A         18.6160     3.2840    31.8700 P.3          1 COA401   0.0000
    29 O4A         20.0190     3.7480    31.7690 O.co2        1 COA401   0.0000
    30 O5A         18.5250     2.1590    32.8850 O.co2        1 COA401  -1.0000
    31 O6A         17.9880     2.7650    30.4810 O.3          1 COA401   0.0000
    32 CBP         18.2780     2.7360    28.0660 C.3          1 COA401   0.0000
    33 CCP         18.1760     3.6000    29.3240 C.3          1 COA401   0.0000
    34 CDP         18.3860     3.6560    26.8440 C.3          1 COA401   0.0000
    35 CEP         19.5440     1.8740    28.1650 C.3          1 COA401   0.0000
    36 CAP         17.0410     1.8160    27.9180 C.3          1 COA401   0.0000
    37 OAP         15.8560     2.5790    27.7700 O.3          1 COA401   0.0000
    38 C9P         17.1820     0.8340    26.7620 C.2          1 COA401   0.0000
    39 O9P         16.9070     1.1830    25.6180 O.2          1 COA401   0.0000
    40 N8P         17.5980    -0.3950    27.0690 N.am         1 COA401   0.0000
    41 C7P         17.8350    -1.4200    26.0610 C.3          1 COA401   0.0000
    42 C6P         19.0510    -1.1060    25.2100 C.3          1 COA401   0.0000
    43 C5P         19.3810    -2.2180    24.2440 C.2          1 COA401   0.0000
    44 O5P         19.3700    -3.3940    24.5960 O.2          1 COA401   0.0000
    45 N4P         19.6940    -1.8440    23.0060 N.am         1 COA401   0.0000
    46 C3P         20.0960    -2.7880    21.9720 C.3          1 COA401   0.0000
    47 C2P         21.5850    -3.0720    22.0100 C.3          1 COA401   0.0000
    48 S1P         21.9210    -4.2630    20.6870 S.3          1 COA401   0.0000
    49 H2A         20.8646    13.5241    27.4588 H            1 COA401   0.0000
    50 H6A1        15.8933    14.2423    26.2094 H            1 COA401   0.0000
    51 H6A2        17.2404    14.8725    25.3215 H            1 COA401   0.0000
    52 H8A         15.5964    11.5672    30.1952 H            1 COA401   0.0000
    53 H1B         19.0513    11.6634    31.3344 H            1 COA401   0.0000
    54 H2B         16.4201    10.5968    31.9065 H            1 COA401   0.0000
    55 H7          17.5469    11.8767    33.9338 H            1 COA401   0.0000
    56 H3B         17.4780     9.1934    33.4439 H            1 COA401   0.0000
    57 H4B         19.7916     8.9996    32.0274 H            1 COA401   0.0000
    58 H5B1        18.6520     7.3451    30.6307 H            1 COA401   0.0000
    59 H5B2        17.3211     7.6418    31.5292 H            1 COA401   0.0000
    60 HCP1        19.0175     4.1296    29.4311 H            1 COA401   0.0000
    61 HCP2        17.3989     4.2232    29.2356 H            1 COA401   0.0000
    62 HDP1        18.4533     3.1017    26.0144 H            1 COA401   0.0000
    63 HDP2        17.5740     4.2372    26.7915 H            1 COA401   0.0000
    64 HDP3        19.2011     4.2290    26.9291 H            1 COA401   0.0000
    65 HEP1        19.6233     1.3032    27.3478 H            1 COA401   0.0000
    66 HEP2        20.3461     2.4668    28.2367 H            1 COA401   0.0000
    67 HEP3        19.4874     1.2904    28.9750 H            1 COA401   0.0000
    68 HAP         16.9561     1.2835    28.7602 H            1 COA401   0.0000
    69 H21         15.7301     3.1588    28.5750 H            1 COA401   0.0000
    70 H8P         17.7537    -0.6225    28.0302 H            1 COA401   0.0000
    71 H7P1        17.0324    -1.4817    25.4677 H            1 COA401   0.0000
    72 H7P2        17.9789    -2.2970    26.5194 H            1 COA401   0.0000
    73 H6P1        19.8357    -0.9609    25.8126 H            1 COA401   0.0000
    74 H6P2        18.8716    -0.2713    24.6894 H            1 COA401   0.0000
    75 H4P         19.6514    -0.8719    22.7752 H            1 COA401   0.0000
    76 H3P1        19.8629    -2.4059    21.0777 H            1 COA401   0.0000
    77 H3P2        19.6002    -3.6458    22.1075 H            1 COA401   0.0000
    78 H2P1        21.8395    -3.4599    22.8959 H            1 COA401   0.0000
    79 H2P2        22.1007    -2.2295    21.8545 H            1 COA401   0.0000
    80 H1P         21.8320    -5.1926    21.0448 H            1 COA401   0.0000
@<TRIPOS>BOND
     1    1    2      ar
     2    1    6      ar
     3    2    3      ar
     4    3    4      ar
     5    4    5      ar
     6    4   10       1
     7    5    6      ar
     8    5    8       1
     9    6    7       1
    10    8    9       2
    11    9   10       1
    12   10   11       1
    13   11   12       1
    14   11   21       1
    15   12   13       1
    16   12   14       1
    17   14   15       1
    18   14   20       1
    19   15   16       1
    20   16   17      ar
    21   16   18      ar
    22   16   19      ar
    23   20   21       1
    24   20   22       1
    25   22   23       1
    26   23   24       1
    27   24   25      ar
    28   24   26      ar
    29   24   27       1
    30   27   28       1
    31   28   29      ar
    32   28   30      ar
    33   28   31       1
    34   31   33       1
    35   32   33       1
    36   32   34       1
    37   32   35       1
    38   32   36       1
    39   36   37       1
    40   36   38       1
    41   38   39       2
    42   38   40      am
    43   40   41       1
    44   41   42       1
    45   42   43       1
    46   43   44       2
    47   43   45      am
    48   45   46       1
    49   46   47       1
    50   47   48       1
    51    2   49       1
    52    7   50       1
    53    7   51       1
    54    9   52       1
    55   11   53       1
    56   12   54       1
    57   13   55       1
    58   14   56       1
    59   48   80       1
    60   47   79       1
    61   20   57       1
    62   22   58       1
    63   22   59       1
    64   47   78       1
    65   46   77       1
    66   33   60       1
    67   33   61       1
    68   34   62       1
    69   34   63       1
    70   34   64       1
    71   35   65       1
    72   35   66       1
    73   35   67       1
    74   36   68       1
    75   37   69       1
    76   40   70       1
    77   41   71       1
    78   41   72       1
    79   42   73       1
    80   42   74       1
    81   45   75       1
    82   46   76       1
@<TRIPOS>SUBSTRUCTURE
     1 COA401      1 GROUP             4 A     COA     0 **** COA A 401
