@<TRIPOS>MOLECULE
1b4p_GPS_1_ligand
   61    63     1     0     0
SMALL
NO_CHARGES


@<TRIPOS>ATOM
     1 C1          29.4760    22.1100    22.0410 C.2          1 GPS218   0.0000
     2 N1          31.0540    21.2160    20.3260 N.4          1 GPS218   1.0000
     3 C2          24.4100    16.5510    22.5200 C.2          1 GPS218   0.0000
     4 N2          26.2840    18.0470    22.5420 N.am         1 GPS218   0.0000
     5 O2          23.8410    15.6240    23.0920 O.2          1 GPS218   0.0000
     6 C3          22.4120    16.4400    19.7360 C.2          1 GPS218   0.0000
     7 N3          24.0250    17.2350    21.4200 N.am         1 GPS218   0.0000
     8 O5          28.7980    13.2580    25.1290 O.3          1 GPS218   0.0000
     9 O11         28.4940    22.7740    22.4190 O.co2        1 GPS218   0.0000
    10 O12         30.6360    22.5220    22.6460 O.co2        1 GPS218  -1.0000
    11 O31         23.4140    15.7880    19.2770 O.co2        1 GPS218   0.0000
    12 O32         21.2330    16.2710    19.1950 O.co2        1 GPS218  -1.0000
    13 CA1         29.6360    21.0960    20.9570 C.3          1 GPS218   0.0000
    14 CA2         25.8860    16.7120    23.0040 C.3          1 GPS218   0.0000
    15 CA3         22.5770    17.1260    21.0410 C.3          1 GPS218   0.0000
    16 CA4         28.5630    15.8260    25.2430 C.3          1 GPS218   0.0000
    17 CA5         27.9080    14.4130    25.2860 C.3          1 GPS218   0.0000
    18 CB1         29.4670    19.6110    21.3690 C.3          1 GPS218   0.0000
    19 CB2         25.8940    16.7710    24.5890 C.3          1 GPS218   0.0000
    20 CB4         29.4610    15.7520    26.5120 C.ar         1 GPS218   0.0000
    21 CB5         27.1780    14.2850    26.5820 C.ar         1 GPS218   0.0000
    22 CD1         27.5350    18.1600    21.9650 C.2          1 GPS218   0.0000
    23 CD4         31.6090    16.2850    27.4770 C.ar         1 GPS218   0.0000
    24 CD5         25.1260    13.6510    27.7070 C.ar         1 GPS218   0.0000
    25 OE1         28.3150    17.1920    21.8070 O.2          1 GPS218   0.0000
    26 CE4         31.1620    15.8400    28.7600 C.ar         1 GPS218   0.0000
    27 CE5         25.6730    14.1440    28.9210 C.ar         1 GPS218   0.0000
    28 CG1         27.9470    19.5360    21.6860 C.3          1 GPS218   0.0000
    29 SG2         27.4950    17.1840    25.2220 S.3          1 GPS218   0.0000
    30 CG4         30.7690    16.2880    26.3850 C.ar         1 GPS218   0.0000
    31 CG5         25.8680    13.7110    26.5090 C.ar         1 GPS218   0.0000
    32 CH4         29.0220    15.2730    27.7500 C.ar         1 GPS218   0.0000
    33 CH5         27.7020    14.7540    27.7560 C.ar         1 GPS218   0.0000
    34 CZ4         29.8800    15.2900    28.8690 C.ar         1 GPS218   0.0000
    35 CZ5         26.9520    14.6560    28.9660 C.ar         1 GPS218   0.0000
    36 H1          31.1550    20.5346    19.6010 H            1 GPS218   0.0000
    37 H2          31.1714    22.1317    19.9416 H            1 GPS218   0.0000
    38 H3          25.6790    18.8372    22.6400 H            1 GPS218   0.0000
    39 H4          24.6696    17.7837    20.8877 H            1 GPS218   0.0000
    40 H5          28.2616    12.4153    25.1743 H            1 GPS218   0.0000
    41 HA1         28.9634    21.2970    20.2448 H            1 GPS218   0.0000
    42 HA2         26.4830    15.9932    22.6477 H            1 GPS218   0.0000
    43 HA31        22.0940    16.6063    21.7457 H            1 GPS218   0.0000
    44 HA32        22.1867    18.0445    20.9779 H            1 GPS218   0.0000
    45 HA4         29.1550    15.8763    24.4386 H            1 GPS218   0.0000
    46 HA5         27.2295    14.3727    24.5525 H            1 GPS218   0.0000
    47 HB11        30.0176    19.3923    22.1746 H            1 GPS218   0.0000
    48 HB12        29.7130    18.9957    20.6201 H            1 GPS218   0.0000
    49 HB21        25.6245    15.8773    24.9478 H            1 GPS218   0.0000
    50 HB22        25.2381    17.4629    24.8907 H            1 GPS218   0.0000
    51 HD4         32.5517    16.6009    27.3699 H            1 GPS218   0.0000
    52 HD5         24.2066    13.2578    27.7013 H            1 GPS218   0.0000
    53 HE4         31.7531    15.9201    29.5626 H            1 GPS218   0.0000
    54 HE5         25.1224    14.1194    29.7554 H            1 GPS218   0.0000
    55 HG11        27.4321    19.8782    20.9000 H            1 GPS218   0.0000
    56 HG12        27.7516    20.1040    22.4855 H            1 GPS218   0.0000
    57 HG4         31.0779    16.6642    25.5114 H            1 GPS218   0.0000
    58 HG5         25.4957    13.3678    25.6466 H            1 GPS218   0.0000
    59 HZ4         29.5721    14.9088    29.7407 H            1 GPS218   0.0000
    60 HZ5         27.3486    14.9545    29.8341 H            1 GPS218   0.0000
    61 H26         31.7465    21.0588    21.0300 H            1 GPS218   0.0000
@<TRIPOS>BOND
     1    1    9      ar
     2    1   10      ar
     3    1   13       1
     4    2   13       1
     5    3    5       2
     6    3    7      am
     7    3   14       1
     8    4   14       1
     9    4   22      am
    10    6   11      ar
    11    6   12      ar
    12    6   15       1
    13    7   15       1
    14    8   17       1
    15   13   18       1
    16   14   19       1
    17   16   17       1
    18   16   20       1
    19   16   29       1
    20   17   21       1
    21   18   28       1
    22   19   29       1
    23   20   30      ar
    24   20   32      ar
    25   21   31      ar
    26   21   33      ar
    27   22   25       2
    28   22   28       1
    29   23   26      ar
    30   23   30      ar
    31   24   27      ar
    32   24   31      ar
    33   26   34      ar
    34   27   35      ar
    35   32   33       1
    36   32   34      ar
    37   33   35      ar
    38    2   36       1
    39    2   37       1
    40    4   38       1
    41    7   39       1
    42    8   40       1
    43    2   61       1
    44   35   60       1
    45   13   41       1
    46   14   42       1
    47   15   43       1
    48   15   44       1
    49   16   45       1
    50   17   46       1
    51   18   47       1
    52   18   48       1
    53   19   49       1
    54   19   50       1
    55   23   51       1
    56   24   52       1
    57   26   53       1
    58   27   54       1
    59   28   55       1
    60   28   56       1
    61   30   57       1
    62   31   58       1
    63   34   59       1
@<TRIPOS>SUBSTRUCTURE
     1 GPS218      1 GROUP             4 A     GPS     0 **** GPS A 218
