@<TRIPOS>MOLECULE
5g3t_FDA_3_ligand
   84    89     1     0     0
SMALL
NO_CHARGES


@<TRIPOS>ATOM
     1 PA          62.9540   -49.5600   110.3320 P.3          1 FDA419   0.0000
     2 O1A         62.9100   -48.1270   109.8430 O.co2        1 FDA419   0.0000
     3 O2A         64.2660   -50.2840   110.5290 O.co2        1 FDA419  -1.0000
     4 O5B         62.1220   -49.5240   111.7000 O.3          1 FDA419   0.0000
     5 C5B         62.1470   -50.6070   112.6340 C.3          1 FDA419   0.0000
     6 C4B         61.9190   -50.0300   114.0260 C.3          1 FDA419   0.0000
     7 O4B         61.8160   -51.1200   114.9520 O.3          1 FDA419   0.0000
     8 C3B         63.0630   -49.1510   114.5330 C.3          1 FDA419   0.0000
     9 O3B         62.5350   -47.8910   114.9490 O.3          1 FDA419   0.0000
    10 C2B         63.6480   -49.8880   115.7350 C.3          1 FDA419   0.0000
    11 O2B         64.0110   -48.9710   116.7540 O.3          1 FDA419   0.0000
    12 C1B         62.4970   -50.7650   116.1720 C.3          1 FDA419   0.0000
    13 N9A         62.8460   -52.0370   116.8250 N.pl3        1 FDA419   0.0000
    14 C8A         63.6310   -53.0100   116.3370 C.2          1 FDA419   0.0000
    15 N7A         63.6900   -54.0670   117.1840 N.2          1 FDA419   0.0000
    16 C5A         62.9440   -53.7400   118.2560 C.ar         1 FDA419   0.0000
    17 C6A         62.5800   -54.3780   119.5170 C.ar         1 FDA419   0.0000
    18 N6A         63.0620   -55.5940   119.7960 N.pl3        1 FDA419   0.0000
    19 N1A         61.7780   -53.7130   120.3530 N.ar         1 FDA419   0.0000
    20 C2A         61.3130   -52.4920   120.0780 C.ar         1 FDA419   0.0000
    21 N3A         61.6050   -51.8500   118.9330 N.ar         1 FDA419   0.0000
    22 C4A         62.3970   -52.4110   118.0190 C.ar         1 FDA419   0.0000
    23 N1          64.7490   -46.2670   101.1480 N.2          1 FDA419   0.0000
    24 C2          64.2720   -45.4950   100.1860 C.2          1 FDA419   0.0000
    25 O2          63.1000   -45.6130    99.8450 O.2          1 FDA419   0.0000
    26 N3          65.0580   -44.6070    99.5870 N.pl3        1 FDA419   0.0000
    27 C4          66.3580   -44.4060    99.8370 C.2          1 FDA419   0.0000
    28 O4          67.0440   -43.5470    99.3050 O.2          1 FDA419   0.0000
    29 C4X         66.9450   -45.2970   100.8680 C.2          1 FDA419   0.0000
    30 N5          68.3330   -45.2160   101.1860 N.2          1 FDA419   0.0000
    31 C5X         68.7210   -45.6710   102.3960 C.ar         1 FDA419   0.0000
    32 C6          69.9500   -45.3050   102.8950 C.ar         1 FDA419   0.0000
    33 C7          70.3320   -45.7400   104.1630 C.ar         1 FDA419   0.0000
    34 C7M         71.6940   -45.3460   104.6770 C.3          1 FDA419   0.0000
    35 C8          69.4290   -46.5870   104.9740 C.ar         1 FDA419   0.0000
    36 C8M         69.8270   -47.0480   106.3560 C.3          1 FDA419   0.0000
    37 C9          68.1980   -46.9420   104.4790 C.ar         1 FDA419   0.0000
    38 C9A         67.8230   -46.5210   103.2090 C.ar         1 FDA419   0.0000
    39 N10         66.5630   -46.8780   102.6920 N.pl3        1 FDA419   0.0000
    40 C10         66.0900   -46.1400   101.5790 C.2          1 FDA419   0.0000
    41 C1'         65.7310   -47.9800   103.2040 C.3          1 FDA419   0.0000
    42 C2'         64.6430   -47.4340   104.1490 C.3          1 FDA419   0.0000
    43 O2'         65.2550   -46.5960   105.1300 O.3          1 FDA419   0.0000
    44 C3'         63.9490   -48.6300   104.8120 C.3          1 FDA419   0.0000
    45 O3'         63.4740   -49.4880   103.7770 O.3          1 FDA419   0.0000
    46 C4'         62.7550   -48.2630   105.6760 C.3          1 FDA419   0.0000
    47 O4'         62.9920   -47.0760   106.4170 O.3          1 FDA419   0.0000
    48 C5'         62.4530   -49.3990   106.6460 C.3          1 FDA419   0.0000
    49 O5'         61.3060   -49.1020   107.4330 O.3          1 FDA419   0.0000
    50 P           60.7590   -50.1380   108.5330 P.3          1 FDA419   0.0000
    51 O1P         59.7440   -49.3920   109.3660 O.co2        1 FDA419   0.0000
    52 O2P         60.3900   -51.4550   107.8920 O.co2        1 FDA419  -1.0000
    53 O3P         62.0640   -50.4960   109.4000 O.3          1 FDA419   0.0000
    54 H5B1        63.0344   -51.0665   112.5978 H            1 FDA419   0.0000
    55 H5B2        61.4235   -51.2616   112.4148 H            1 FDA419   0.0000
    56 H4B         61.0677   -49.5054   114.0335 H            1 FDA419   0.0000
    57 H3B         63.7557   -49.0272   113.8225 H            1 FDA419   0.0000
    58 H5          61.8701   -48.0339   115.6822 H            1 FDA419   0.0000
    59 H2B         64.4333   -50.4437   115.4621 H            1 FDA419   0.0000
    60 H7          63.2020   -48.4622   117.0482 H            1 FDA419   0.0000
    61 H1B         61.8808   -50.2424   116.7613 H            1 FDA419   0.0000
    62 H8A         64.1109   -52.9616   115.4610 H            1 FDA419   0.0000
    63 H6A1        62.8203   -56.0423   120.6566 H            1 FDA419   0.0000
    64 H6A2        63.6641   -56.0549   119.1440 H            1 FDA419   0.0000
    65 H2A         60.7259   -52.0381   120.7483 H            1 FDA419   0.0000
    66 H13         64.6389   -44.0343    98.8825 H            1 FDA419   0.0000
    67 H14         70.5640   -44.7317   102.3525 H            1 FDA419   0.0000
    68 H7M1        71.8280   -45.7268   105.5919 H            1 FDA419   0.0000
    69 H7M2        72.3979   -45.7010   104.0618 H            1 FDA419   0.0000
    70 H7M3        71.7592   -44.3490   104.7181 H            1 FDA419   0.0000
    71 H8M1        69.0942   -47.6063   106.7451 H            1 FDA419   0.0000
    72 H8M2        70.6647   -47.5910   106.2979 H            1 FDA419   0.0000
    73 H8M3        69.9856   -46.2520   106.9401 H            1 FDA419   0.0000
    74 H21         67.5760   -47.4995   105.0287 H            1 FDA419   0.0000
    75 H1'1        66.3090   -48.6249   103.7040 H            1 FDA419   0.0000
    76 H1'2        65.2955   -48.4491   102.4357 H            1 FDA419   0.0000
    77 H2'         63.9754   -46.9058   103.6242 H            1 FDA419   0.0000
    78 H25         64.7251   -46.6329   105.9773 H            1 FDA419   0.0000
    79 H3'         64.6148   -49.1269   105.3686 H            1 FDA419   0.0000
    80 H27         63.0158   -50.2785   104.1834 H            1 FDA419   0.0000
    81 H4'         61.9601   -48.1222   105.0858 H            1 FDA419   0.0000
    82 H29         62.4807   -47.1114   107.2757 H            1 FDA419   0.0000
    83 H5'1        63.2390   -49.5319   107.2497 H            1 FDA419   0.0000
    84 H5'2        62.2860   -50.2372   106.1269 H            1 FDA419   0.0000
@<TRIPOS>BOND
     1    1    2      ar
     2    1    3      ar
     3    1    4       1
     4    1   53       1
     5    4    5       1
     6    5    6       1
     7    6    7       1
     8    6    8       1
     9    7   12       1
    10    8    9       1
    11    8   10       1
    12   10   11       1
    13   10   12       1
    14   12   13       1
    15   13   14       1
    16   13   22       1
    17   14   15       2
    18   15   16       1
    19   16   17      ar
    20   16   22      ar
    21   17   18       1
    22   17   19      ar
    23   19   20      ar
    24   20   21      ar
    25   21   22      ar
    26   23   24       1
    27   23   40       2
    28   24   25       2
    29   24   26       1
    30   26   27       1
    31   27   28       2
    32   27   29       1
    33   29   30       2
    34   29   40       1
    35   30   31       1
    36   31   32      ar
    37   31   38      ar
    38   32   33      ar
    39   33   34       1
    40   33   35      ar
    41   35   36       1
    42   35   37      ar
    43   37   38      ar
    44   38   39       1
    45   39   40       1
    46   39   41       1
    47   41   42       1
    48   42   43       1
    49   42   44       1
    50   44   45       1
    51   44   46       1
    52   46   47       1
    53   46   48       1
    54   48   49       1
    55   49   50       1
    56   50   51      ar
    57   50   52      ar
    58   50   53       1
    59   48   84       1
    60    5   54       1
    61    5   55       1
    62    6   56       1
    63    8   57       1
    64    9   58       1
    65   10   59       1
    66   11   60       1
    67   12   61       1
    68   14   62       1
    69   18   63       1
    70   18   64       1
    71   20   65       1
    72   26   66       1
    73   32   67       1
    74   34   68       1
    75   34   69       1
    76   34   70       1
    77   36   71       1
    78   36   72       1
    79   36   73       1
    80   37   74       1
    81   41   75       1
    82   41   76       1
    83   42   77       1
    84   43   78       1
    85   44   79       1
    86   45   80       1
    87   46   81       1
    88   47   82       1
    89   48   83       1
@<TRIPOS>SUBSTRUCTURE
     1 FDA419      1 GROUP             4 C     FDA     0 **** FDA C 419
