@<TRIPOS>MOLECULE
4g16_0VM_1_ligand
   41    44     1     0     0
SMALL
NO_CHARGES


@<TRIPOS>ATOM
     1 C8          38.3130   -12.1150    26.6580 C.ar         1 0VM401   0.0000
     2 C9          37.6040   -13.3660    26.3650 C.ar         1 0VM401   0.0000
     3 C10         36.9700   -14.0690    27.4800 C.ar         1 0VM401   0.0000
     4 C11         37.0640   -13.4960    28.8350 C.ar         1 0VM401   0.0000
     5 C13         37.7740   -12.2480    29.1050 C.ar         1 0VM401   0.0000
     6 C14         38.4240   -11.5270    27.9960 C.ar         1 0VM401   0.0000
     7 N3          36.2740   -15.1900    27.5750 N.pl3        1 0VM401   0.0000
     8 C12         35.9500   -15.3230    28.8750 C.2          1 0VM401   0.0000
     9 N4          36.3900   -14.3600    29.6300 N.2          1 0VM401   0.0000
    10 C15         35.5360   -20.4790    28.4140 C.ar         1 0VM401   0.0000
    11 C16         36.5900   -19.6120    27.9300 C.ar         1 0VM401   0.0000
    12 C17         36.4900   -18.2130    28.2590 C.ar         1 0VM401   0.0000
    13 C18         35.3520   -17.7460    29.0460 C.ar         1 0VM401   0.0000
    14 C19         34.3100   -18.6160    29.5280 C.ar         1 0VM401   0.0000
    15 C20         34.3930   -20.0360    29.2090 C.ar         1 0VM401   0.0000
    16 N1          35.1780   -16.4480    29.3960 N.pl3        1 0VM401   0.0000
    17 C7          38.9300   -11.4480    25.6020 C.1          1 0VM401   0.0000
    18 N2          39.4330   -10.9230    24.7110 N.1          1 0VM401   0.0000
    19 C1          32.8600   -23.5990    25.3620 C.ar         1 0VM401   0.0000
    20 C2          33.6870   -24.4440    26.1560 C.ar         1 0VM401   0.0000
    21 C3          34.6620   -23.8830    27.0900 C.ar         1 0VM401   0.0000
    22 C4          34.7610   -22.4590    27.1930 C.ar         1 0VM401   0.0000
    23 N5          33.9520   -21.6510    26.4070 N.ar         1 0VM401   0.0000
    24 C6          33.0220   -22.1660    25.5110 C.ar         1 0VM401   0.0000
    25 O1          35.6440   -21.8750    28.0960 O.3          1 0VM401   0.0000
    26 C5          35.5420   -24.8580    27.8630 C.3          1 0VM401   0.0000
    27 F1          36.7680   -24.3650    28.1550 F            1 0VM401   0.0000
    28 F3          35.7040   -25.9740    27.0940 F            1 0VM401   0.0000
    29 F2          34.9190   -25.1890    29.0160 F            1 0VM401   0.0000
    30 H1          37.5559   -13.7261    25.4333 H            1 0VM401   0.0000
    31 H2          37.8186   -11.8855    30.0359 H            1 0VM401   0.0000
    32 H3          38.9200   -10.6724    28.1500 H            1 0VM401   0.0000
    33 H4          37.3534   -19.9685    27.3913 H            1 0VM401   0.0000
    34 H5          37.1913   -17.5696    27.9522 H            1 0VM401   0.0000
    35 H6          33.5493   -18.2552    30.0675 H            1 0VM401   0.0000
    36 H7          33.6957   -20.6810    29.5217 H            1 0VM401   0.0000
    37 H8          34.4632   -16.2443    30.0650 H            1 0VM401   0.0000
    38 H9          32.1911   -23.9807    24.7241 H            1 0VM401   0.0000
    39 H10         33.5994   -25.4367    26.0734 H            1 0VM401   0.0000
    40 H11         32.4608   -21.5436    24.9654 H            1 0VM401   0.0000
    41 H12         36.0362   -15.8137    26.8304 H            1 0VM401   0.0000
@<TRIPOS>BOND
     1    1    2      ar
     2    1    6      ar
     3    1   17       1
     4    2    3      ar
     5    3    4      ar
     6    3    7       1
     7    4    5      ar
     8    4    9       1
     9    5    6      ar
    10    7    8       1
    11    8    9       2
    12    8   16       1
    13   10   11      ar
    14   10   15      ar
    15   10   25       1
    16   11   12      ar
    17   12   13      ar
    18   13   14      ar
    19   13   16       1
    20   14   15      ar
    21   17   18       3
    22   19   20      ar
    23   19   24      ar
    24   20   21      ar
    25   21   22      ar
    26   21   26       1
    27   22   23      ar
    28   22   25       1
    29   23   24      ar
    30   26   27       1
    31   26   28       1
    32   26   29       1
    33    2   30       1
    34    5   31       1
    35    6   32       1
    36   24   40       1
    37   11   33       1
    38   12   34       1
    39   14   35       1
    40   15   36       1
    41   16   37       1
    42   19   38       1
    43   20   39       1
    44    7   41       1
@<TRIPOS>SUBSTRUCTURE
     1 0VM401      1 GROUP             4 A     0VM     0 **** 0VM A 401
