@<TRIPOS>MOLECULE
4uga_H4B_1_ligand
   32    33     1     0     0
SMALL
NO_CHARGES


@<TRIPOS>ATOM
     1 N1           3.6600     6.7720    22.9360 N.2          1 H4B902   0.0000
     2 C2           3.9060     7.9970    23.4800 C.2          1 H4B902   0.0000
     3 N8           4.4050     4.7770    21.9240 N.pl3        1 H4B902   0.0000
     4 C7           5.5180     3.8990    21.6320 C.3          1 H4B902   0.0000
     5 C6           6.6780     4.7130    21.0690 C.3          1 H4B902   0.0000
     6 N5           7.0620     5.7400    22.0300 N.pl3        1 H4B902   0.0000
     7 C4           6.2450     7.8430    23.1170 C.2          1 H4B902   0.0000
     8 N3           5.1590     8.5010    23.5570 N.pl3        1 H4B902   0.0000
     9 C10          4.6630     5.9940    22.4580 C.2          1 H4B902   0.0000
    10 C9           6.0560     6.5040    22.5100 C.2          1 H4B902   0.0000
    11 C17          8.6770     2.0530    19.1330 C.3          1 H4B902   0.0000
    12 O16          6.5120     3.0550    18.7870 O.3          1 H4B902   0.0000
    13 C15          7.4470     2.6520    19.8010 C.3          1 H4B902   0.0000
    14 N11          2.8680     8.7500    23.9530 N.pl3        1 H4B902   0.0000
    15 O12          7.3790     8.3650    23.2190 O.2          1 H4B902   0.0000
    16 C13          7.8520     3.8130    20.7150 C.3          1 H4B902   0.0000
    17 O14          8.3800     3.2860    21.9380 O.3          1 H4B902   0.0000
    18 H1           3.4656     4.4908    21.7353 H            1 H4B902   0.0000
    19 H2           5.2346     3.2147    20.9601 H            1 H4B902   0.0000
    20 H3           5.8096     3.4409    22.4717 H            1 H4B902   0.0000
    21 H4           6.3669     5.1659    20.2335 H            1 H4B902   0.0000
    22 H5           8.0112     5.8709    22.3162 H            1 H4B902   0.0000
    23 H6           9.3323     1.7702    19.8335 H            1 H4B902   0.0000
    24 H7           8.4072     1.2586    18.5888 H            1 H4B902   0.0000
    25 H8           9.0994     2.7367    18.5380 H            1 H4B902   0.0000
    26 H9           6.9382     3.7370    18.1927 H            1 H4B902   0.0000
    27 H10          7.0174     1.9445    20.3622 H            1 H4B902   0.0000
    28 H11          3.0443     9.6494    24.3529 H            1 H4B902   0.0000
    29 H12          1.9322     8.4015    23.8991 H            1 H4B902   0.0000
    30 H13          8.5573     4.3573    20.2609 H            1 H4B902   0.0000
    31 H14          9.1559     2.6884    21.7360 H            1 H4B902   0.0000
    32 H15          5.2832     9.4073    23.9610 H            1 H4B902   0.0000
@<TRIPOS>BOND
     1    1    2       2
     2    1    9       1
     3    2    8       1
     4    2   14       1
     5    3    4       1
     6    3    9       1
     7    4    5       1
     8    5    6       1
     9    5   16       1
    10    6   10       1
    11    7    8       1
    12    7   10       1
    13    7   15       2
    14    9   10       2
    15   11   13       1
    16   12   13       1
    17   13   16       1
    18   16   17       1
    19   17   31       1
    20    3   18       1
    21    4   19       1
    22    4   20       1
    23    5   21       1
    24    6   22       1
    25   11   23       1
    26   11   24       1
    27   11   25       1
    28   12   26       1
    29   13   27       1
    30   14   28       1
    31   14   29       1
    32   16   30       1
    33    8   32       1
@<TRIPOS>SUBSTRUCTURE
     1 H4B902      1 GROUP             4 A     H4B     0 **** H4B A 902
