@<TRIPOS>MOLECULE
1ckp_PVB_1_ligand
   28    30     1     0     0
SMALL
NO_CHARGES


@<TRIPOS>ATOM
     1 N1          24.7810    27.7440    28.1860 N.ar         1 PVB299   0.0000
     2 C9          28.4790    31.4500    27.6600 C.3          1 PVB299   0.0000
     3 N9          27.1430    31.0470    28.2300 N.pl3        1 PVB299   0.0000
     4 C4          26.4690    29.8110    28.1300 C.ar         1 PVB299   0.0000
     5 N3          26.8930    28.6810    27.4880 N.ar         1 PVB299   0.0000
     6 C2          26.0150    27.6920    27.5540 C.ar         1 PVB299   0.0000
     7 C6          24.3340    28.8830    28.8410 C.ar         1 PVB299   0.0000
     8 C5          25.2540    30.0170    28.8170 C.ar         1 PVB299   0.0000
     9 N7          25.1600    31.2710    29.3340 N.2          1 PVB299   0.0000
    10 C8          26.2870    31.8800    28.9750 C.2          1 PVB299   0.0000
    11 N6          23.0780    28.9110    29.4620 N.pl3        1 PVB299   0.0000
    12 C1A         22.3530    27.6590    29.6380 C.ar         1 PVB299   0.0000
    13 C2A         22.1060    27.1870    30.9280 C.ar         1 PVB299   0.0000
    14 C3A         21.4060    25.9960    31.1250 C.ar         1 PVB299   0.0000
    15 C4A         20.9450    25.2620    30.0290 C.ar         1 PVB299   0.0000
    16 C5A         21.1870    25.7260    28.7310 C.ar         1 PVB299   0.0000
    17 CL1         20.6210    24.8320    27.3770 Cl           1 PVB299   0.0000
    18 C6A         21.8890    26.9230    28.5360 C.ar         1 PVB299   0.0000
    19 H1          28.6756    32.3982    27.9097 H            1 PVB299   0.0000
    20 H2          29.1922    30.8536    28.0283 H            1 PVB299   0.0000
    21 H3          28.4555    31.3656    26.6638 H            1 PVB299   0.0000
    22 H4          26.2633    26.8316    27.1090 H            1 PVB299   0.0000
    23 H5          26.5029    32.8279    29.2093 H            1 PVB299   0.0000
    24 H6          22.6861    29.7748    29.7788 H            1 PVB299   0.0000
    25 H2A         22.4332    27.7064    31.7174 H            1 PVB299   0.0000
    26 H3A         21.2338    25.6668    32.0534 H            1 PVB299   0.0000
    27 H4A         20.4440    24.4084    30.1716 H            1 PVB299   0.0000
    28 H6A         22.0602    27.2544    27.6082 H            1 PVB299   0.0000
@<TRIPOS>BOND
     1    1    6      ar
     2    1    7      ar
     3    2    3       1
     4    3    4       1
     5    3   10       1
     6    4    5      ar
     7    4    8      ar
     8    5    6      ar
     9    7    8      ar
    10    7   11       1
    11    8    9       1
    12    9   10       2
    13   11   12       1
    14   12   13      ar
    15   12   18      ar
    16   13   14      ar
    17   14   15      ar
    18   15   16      ar
    19   16   17       1
    20   16   18      ar
    21    2   19       1
    22    2   20       1
    23    2   21       1
    24    6   22       1
    25   10   23       1
    26   11   24       1
    27   13   25       1
    28   14   26       1
    29   15   27       1
    30   18   28       1
@<TRIPOS>SUBSTRUCTURE
     1 PVB299      1 GROUP             4 A     PVB     0 **** PVB A 299
