@<TRIPOS>MOLECULE
3ihz_FK5_1_ligand
  128   131     1     0     0
SMALL
NO_CHARGES


@<TRIPOS>ATOM
     1 C1          -6.8790    -7.9670   -27.3520 C.2          1 FK5501   0.0000
     2 C2          -6.2480    -8.1560   -26.0120 C.3          1 FK5501   0.0000
     3 C3          -6.7740    -7.0780   -25.0390 C.3          1 FK5501   0.0000
     4 C4          -6.1320    -5.6930   -25.2100 C.3          1 FK5501   0.0000
     5 C5          -4.6070    -5.8330   -25.2740 C.3          1 FK5501   0.0000
     6 C6          -4.1170    -6.8060   -26.3570 C.3          1 FK5501   0.0000
     7 C8          -4.0810    -9.2080   -25.8730 C.2          1 FK5501   0.0000
     8 C9          -2.6970    -9.3120   -25.8920 C.2          1 FK5501   0.0000
     9 C10         -1.9370    -9.5600   -27.1670 C.3          1 FK5501   0.0000
    10 C11         -2.6390   -10.5320   -28.0950 C.3          1 FK5501   0.0000
    11 C12         -1.9800   -10.4620   -29.4730 C.3          1 FK5501   0.0000
    12 C13         -1.9150    -9.0340   -30.0050 C.3          1 FK5501   0.0000
    13 C14         -1.1480    -8.1980   -28.9810 C.3          1 FK5501   0.0000
    14 C15         -1.0010    -6.7060   -29.3370 C.3          1 FK5501   0.0000
    15 C16         -2.2650    -6.0270   -29.8410 C.3          1 FK5501   0.0000
    16 C17         -2.2140    -4.4820   -29.8830 C.3          1 FK5501   0.0000
    17 C18         -1.6710    -4.0070   -31.2340 C.3          1 FK5501   0.0000
    18 C19         -2.7620    -4.1010   -32.2780 C.2          1 FK5501   0.0000
    19 C20         -2.7810    -5.2270   -33.2130 C.2          1 FK5501   0.0000
    20 C21         -3.8880    -5.4280   -34.1930 C.3          1 FK5501   0.0000
    21 C22         -4.9330    -6.2320   -33.5030 C.2          1 FK5501   0.0000
    22 C23         -6.1050    -5.5650   -32.8410 C.3          1 FK5501   0.0000
    23 C24         -6.8840    -6.4830   -31.9080 C.3          1 FK5501   0.0000
    24 C25         -6.2090    -6.7460   -30.5400 C.3          1 FK5501   0.0000
    25 C26         -6.9660    -7.7410   -29.6400 C.3          1 FK5501   0.0000
    26 C27         -6.9890    -9.1030   -30.2870 C.2          1 FK5501   0.0000
    27 C28         -8.3000    -9.6550   -30.6760 C.2          1 FK5501   0.0000
    28 C29         -8.4570   -11.0030   -31.3410 C.3          1 FK5501   0.0000
    29 C30         -9.7300   -11.6780   -30.7840 C.3          1 FK5501   0.0000
    30 C31         -9.9480   -13.0130   -31.4590 C.3          1 FK5501   0.0000
    31 C32        -10.0840   -12.8350   -32.9700 C.3          1 FK5501   0.0000
    32 C33         -8.8390   -12.1650   -33.5250 C.3          1 FK5501   0.0000
    33 C34         -8.6490   -10.8030   -32.8570 C.3          1 FK5501   0.0000
    34 C35         -2.6350   -11.9780   -27.5660 C.3          1 FK5501   0.0000
    35 C36         -1.3470    -3.8260   -28.7990 C.3          1 FK5501   0.0000
    36 C37         -3.8130    -3.0330   -32.3450 C.3          1 FK5501   0.0000
    37 C38         -3.3170    -6.1940   -35.3830 C.3          1 FK5501   0.0000
    38 C39         -2.3440    -5.2640   -36.1020 C.3          1 FK5501   0.0000
    39 C40         -2.3360    -5.1450   -37.5740 C.3          1 FK5501   0.0000
    40 C41         -5.9990    -5.4310   -29.7610 C.3          1 FK5501   0.0000
    41 C42         -5.7030    -9.8770   -30.5490 C.3          1 FK5501   0.0000
    42 C43         -2.0540    -9.5710   -32.2920 C.3          1 FK5501   0.0000
    43 C44          1.3100    -6.6070   -29.6480 C.3          1 FK5501   0.0000
    44 C45        -11.0740   -13.9990   -29.6430 C.3          1 FK5501   0.0000
    45 N7          -4.7880    -8.1030   -26.1140 N.am         1 FK5501   0.0000
    46 O1          -6.2240    -7.9100   -28.4260 O.3          1 FK5501   0.0000
    47 O2          -8.2430    -7.8050   -27.3760 O.2          1 FK5501   0.0000
    48 O3          -4.7390   -10.3430   -25.5210 O.2          1 FK5501   0.0000
    49 O4          -2.0230    -9.2590   -24.7040 O.2          1 FK5501   0.0000
    50 O5          -1.8540    -8.2940   -27.7530 O.3          1 FK5501   0.0000
    51 O6          -0.6400   -10.0880   -26.8390 O.3          1 FK5501   0.0000
    52 O7          -1.2640    -8.9890   -31.2660 O.3          1 FK5501   0.0000
    53 O8           0.0360    -6.5130   -30.2830 O.3          1 FK5501   0.0000
    54 O9          -4.7670    -7.5910   -33.4660 O.2          1 FK5501   0.0000
    55 O10         -8.1490    -5.9050   -31.6850 O.3          1 FK5501   0.0000
    56 O11        -11.1650   -13.5830   -31.0060 O.3          1 FK5501   0.0000
    57 O12        -10.2540   -14.1230   -33.5650 O.3          1 FK5501   0.0000
    58 H1          -6.5096    -9.0553   -25.6615 H            1 FK5501   0.0000
    59 H2          -6.5995    -7.3893   -24.1049 H            1 FK5501   0.0000
    60 H3          -7.7595    -6.9844   -25.1805 H            1 FK5501   0.0000
    61 H4          -6.3801    -5.1138   -24.4335 H            1 FK5501   0.0000
    62 H5          -6.4630    -5.2757   -26.0563 H            1 FK5501   0.0000
    63 H6          -4.2832    -6.1606   -24.3864 H            1 FK5501   0.0000
    64 H7          -4.2155    -4.9318   -25.4597 H            1 FK5501   0.0000
    65 H8          -3.1250    -6.9163   -26.2954 H            1 FK5501   0.0000
    66 H9          -4.3582    -6.4597   -27.2636 H            1 FK5501   0.0000
    67 H10         -3.5902   -10.2387   -28.1903 H            1 FK5501   0.0000
    68 H11         -2.5086   -11.0206   -30.1121 H            1 FK5501   0.0000
    69 H12         -1.0501   -10.8234   -29.4046 H            1 FK5501   0.0000
    70 H13         -2.8429    -8.6731   -30.0985 H            1 FK5501   0.0000
    71 H14         -0.2368    -8.5920   -28.8607 H            1 FK5501   0.0000
    72 H15         -0.7268    -6.2310   -28.5008 H            1 FK5501   0.0000
    73 H16         -3.0194    -6.2949   -29.2418 H            1 FK5501   0.0000
    74 H17         -2.4432    -6.3555   -30.7686 H            1 FK5501   0.0000
    75 H18         -3.1476    -4.1375   -29.7849 H            1 FK5501   0.0000
    76 H19         -0.9002    -4.5837   -31.5047 H            1 FK5501   0.0000
    77 H20         -1.3658    -3.0579   -31.1554 H            1 FK5501   0.0000
    78 H21         -2.0269    -5.8835   -33.1944 H            1 FK5501   0.0000
    79 H22         -4.2600    -4.5478   -34.4878 H            1 FK5501   0.0000
    80 H23         -6.7260    -5.2378   -33.5533 H            1 FK5501   0.0000
    81 H24         -5.7676    -4.7876   -32.3101 H            1 FK5501   0.0000
    82 H25         -7.0158    -7.3611   -32.3680 H            1 FK5501   0.0000
    83 H26         -5.3054    -7.1341   -30.7216 H            1 FK5501   0.0000
    84 H27         -7.8935    -7.4187   -29.4509 H            1 FK5501   0.0000
    85 H28         -9.1206    -9.1140   -30.4918 H            1 FK5501   0.0000
    86 H29         -7.6550   -11.5736   -31.1642 H            1 FK5501   0.0000
    87 H30        -10.5191   -11.0881   -30.9552 H            1 FK5501   0.0000
    88 H31         -9.6261   -11.8183   -29.7994 H            1 FK5501   0.0000
    89 H32         -9.1861   -13.6276   -31.2547 H            1 FK5501   0.0000
    90 H33        -10.8838   -12.2683   -33.1681 H            1 FK5501   0.0000
    91 H34         -8.9400   -12.0405   -34.5121 H            1 FK5501   0.0000
    92 H35         -8.0417   -12.7399   -33.3414 H            1 FK5501   0.0000
    93 H36         -7.8422   -10.3527   -33.2396 H            1 FK5501   0.0000
    94 H37         -9.4561   -10.2354   -33.0197 H            1 FK5501   0.0000
    95 H38         -3.1094   -12.5720   -28.2158 H            1 FK5501   0.0000
    96 H39         -1.6913   -12.2903   -27.4565 H            1 FK5501   0.0000
    97 H40         -3.1017   -12.0109   -26.6822 H            1 FK5501   0.0000
    98 H41         -1.3753    -2.8321   -28.9057 H            1 FK5501   0.0000
    99 H42         -1.6977    -4.0744   -27.8961 H            1 FK5501   0.0000
   100 H43         -0.4033    -4.1442   -28.8892 H            1 FK5501   0.0000
   101 H44         -4.4542    -3.2422   -33.0833 H            1 FK5501   0.0000
   102 H45         -4.3061    -2.9956   -31.4758 H            1 FK5501   0.0000
   103 H46         -3.3794    -2.1492   -32.5205 H            1 FK5501   0.0000
   104 H47         -4.0548    -6.4617   -36.0027 H            1 FK5501   0.0000
   105 H48         -2.8364    -7.0110   -35.0645 H            1 FK5501   0.0000
   106 H49         -1.4254    -5.5577   -35.8376 H            1 FK5501   0.0000
   107 H50         -2.5158    -4.3456   -35.7456 H            1 FK5501   0.0000
   108 H51         -1.6324    -4.4909   -37.8517 H            1 FK5501   0.0000
   109 H52         -2.1399    -6.0378   -37.9795 H            1 FK5501   0.0000
   110 H53         -3.2303    -4.8257   -37.8875 H            1 FK5501   0.0000
   111 H54         -5.5625    -5.6295   -28.8835 H            1 FK5501   0.0000
   112 H55         -5.4147    -4.8181   -30.2929 H            1 FK5501   0.0000
   113 H56         -6.8838    -4.9930   -29.6017 H            1 FK5501   0.0000
   114 H57         -5.9225   -10.7517   -30.9812 H            1 FK5501   0.0000
   115 H58         -5.1113    -9.3451   -31.1548 H            1 FK5501   0.0000
   116 H59         -5.2311   -10.0422   -29.6830 H            1 FK5501   0.0000
   117 H60         -1.5621    -9.5197   -33.1611 H            1 FK5501   0.0000
   118 H61         -2.2375   -10.5284   -32.0689 H            1 FK5501   0.0000
   119 H62         -2.9189    -9.0749   -32.3687 H            1 FK5501   0.0000
   120 H63          2.0316    -6.4690   -30.3264 H            1 FK5501   0.0000
   121 H64          1.3812    -5.9061   -28.9383 H            1 FK5501   0.0000
   122 H65          1.4102    -7.5118   -29.2341 H            1 FK5501   0.0000
   123 H66        -11.9464   -14.3951   -29.3564 H            1 FK5501   0.0000
   124 H67        -10.3509   -14.6836   -29.5510 H            1 FK5501   0.0000
   125 H68        -10.8610   -13.2097   -29.0671 H            1 FK5501   0.0000
   126 H69          0.0078    -9.3346   -26.7263 H            1 FK5501   0.0000
   127 H70         -8.7921    -6.2333   -32.3768 H            1 FK5501   0.0000
   128 H71         -9.4587   -14.6930   -33.3588 H            1 FK5501   0.0000
@<TRIPOS>BOND
     1    1    2       1
     2    1   46       1
     3    1   47       2
     4    2    3       1
     5    2   45       1
     6    3    4       1
     7    4    5       1
     8    5    6       1
     9    6   45       1
    10    7    8       1
    11    7   45      am
    12    7   48       2
    13    8    9       1
    14    8   49       2
    15    9   10       1
    16    9   50       1
    17    9   51       1
    18   10   11       1
    19   10   34       1
    20   11   12       1
    21   12   13       1
    22   12   52       1
    23   13   14       1
    24   13   50       1
    25   14   15       1
    26   14   53       1
    27   15   16       1
    28   16   17       1
    29   16   35       1
    30   17   18       1
    31   18   19       2
    32   18   36       1
    33   19   20       1
    34   20   21       1
    35   20   37       1
    36   21   22       1
    37   21   54       2
    38   22   23       1
    39   23   24       1
    40   23   55       1
    41   24   25       1
    42   24   40       1
    43   25   26       1
    44   25   46       1
    45   26   27       2
    46   26   41       1
    47   27   28       1
    48   28   29       1
    49   28   33       1
    50   29   30       1
    51   30   31       1
    52   30   56       1
    53   31   32       1
    54   31   57       1
    55   32   33       1
    56   37   38       1
    57   38   39       1
    58   42   52       1
    59   43   53       1
    60   44   56       1
    61    2   58       1
    62    3   59       1
    63    3   60       1
    64    4   61       1
    65    4   62       1
    66    5   63       1
    67    5   64       1
    68    6   65       1
    69    6   66       1
    70   10   67       1
    71   11   68       1
    72   11   69       1
    73   12   70       1
    74   13   71       1
    75   14   72       1
    76   15   73       1
    77   15   74       1
    78   16   75       1
    79   17   76       1
    80   17   77       1
    81   19   78       1
    82   20   79       1
    83   22   80       1
    84   22   81       1
    85   23   82       1
    86   24   83       1
    87   25   84       1
    88   27   85       1
    89   28   86       1
    90   29   87       1
    91   29   88       1
    92   30   89       1
    93   31   90       1
    94   32   91       1
    95   32   92       1
    96   33   93       1
    97   33   94       1
    98   34   95       1
    99   34   96       1
   100   34   97       1
   101   35   98       1
   102   35   99       1
   103   35  100       1
   104   36  101       1
   105   36  102       1
   106   36  103       1
   107   37  104       1
   108   37  105       1
   109   38  106       1
   110   38  107       1
   111   39  108       1
   112   39  109       1
   113   39  110       1
   114   40  111       1
   115   40  112       1
   116   40  113       1
   117   41  114       1
   118   41  115       1
   119   41  116       1
   120   42  117       1
   121   42  118       1
   122   42  119       1
   123   43  120       1
   124   43  121       1
   125   43  122       1
   126   44  123       1
   127   44  124       1
   128   44  125       1
   129   51  126       1
   130   55  127       1
   131   57  128       1
@<TRIPOS>SUBSTRUCTURE
     1 FK5501      1 GROUP             4 A     FK5     0 **** FK5 A 501
