@<TRIPOS>MOLECULE
3duw_SAH_2_ligand
   46    48     1     0     0
SMALL
NO_CHARGES


@<TRIPOS>ATOM
     1 N           27.9260    38.5700    64.9490 N.4          1 SAH224   1.0000
     2 CA          26.7460    39.3530    65.4970 C.3          1 SAH224   0.0000
     3 CB          27.1350    40.6500    66.1200 C.3          1 SAH224   0.0000
     4 CG          28.0910    40.6260    67.2690 C.3          1 SAH224   0.0000
     5 SD          28.3490    42.3560    67.8130 S.3          1 SAH224   0.0000
     6 C           25.7800    39.6850    64.3170 C.2          1 SAH224   0.0000
     7 O           26.0910    39.3610    63.1670 O.co2        1 SAH224   0.0000
     8 OXT         24.7010    40.3010    64.6410 O.co2        1 SAH224  -1.0000
     9 C5'         29.7380    42.1070    68.8470 C.3          1 SAH224   0.0000
    10 C4'         29.3720    41.2450    70.1510 C.3          1 SAH224   0.0000
    11 O4'         30.6370    41.1720    70.8020 O.3          1 SAH224   0.0000
    12 C3'         28.4720    41.9190    71.1710 C.3          1 SAH224   0.0000
    13 O3'         27.2940    41.1580    71.4190 O.3          1 SAH224   0.0000
    14 C2'         29.4280    42.0730    72.4250 C.3          1 SAH224   0.0000
    15 O2'         28.7400    42.0400    73.6700 O.3          1 SAH224   0.0000
    16 C1'         30.4000    40.9280    72.2180 C.3          1 SAH224   0.0000
    17 N9          31.5750    40.9890    72.8530 N.pl3        1 SAH224   0.0000
    18 C8          32.4460    42.0230    73.1270 C.2          1 SAH224   0.0000
    19 N7          33.5150    41.6930    73.7740 N.2          1 SAH224   0.0000
    20 C5          33.3830    40.2940    73.9700 C.ar         1 SAH224   0.0000
    21 C6          34.2450    39.3430    74.6170 C.ar         1 SAH224   0.0000
    22 N6          35.4130    39.6600    75.1870 N.pl3        1 SAH224   0.0000
    23 N1          33.7810    38.0510    74.6120 N.ar         1 SAH224   0.0000
    24 C2          32.5990    37.6800    74.0440 C.ar         1 SAH224   0.0000
    25 N3          31.7480    38.5610    73.4140 N.ar         1 SAH224   0.0000
    26 C4          32.2030    39.8450    73.4160 C.ar         1 SAH224   0.0000
    27 H1          28.2862    37.9678    65.6614 H            1 SAH224   0.0000
    28 H2          27.6281    38.0213    64.1679 H            1 SAH224   0.0000
    29 HA          26.2635    38.7942    66.1715 H            1 SAH224   0.0000
    30 HB1         26.2954    41.0871    66.4425 H            1 SAH224   0.0000
    31 HB2         27.5484    41.2108    65.4026 H            1 SAH224   0.0000
    32 HG1         28.9609    40.2262    66.9802 H            1 SAH224   0.0000
    33 HG2         27.7088    40.0863    68.0191 H            1 SAH224   0.0000
    34 H5'1        30.0882    42.9977    69.1369 H            1 SAH224   0.0000
    35 H5'2        30.4437    41.6240    68.3286 H            1 SAH224   0.0000
    36 H4'         29.0327    40.3366    69.9065 H            1 SAH224   0.0000
    37 H3'         28.2155    42.8261    70.8374 H            1 SAH224   0.0000
    38 H12         27.5473    40.2565    71.7700 H            1 SAH224   0.0000
    39 H2'         29.9243    42.9380    72.3509 H            1 SAH224   0.0000
    40 H14         28.2617    41.1668    73.7635 H            1 SAH224   0.0000
    41 H1'         29.9550    40.0444    72.3637 H            1 SAH224   0.0000
    42 H16         32.2626    42.9645    72.8441 H            1 SAH224   0.0000
    43 H17         35.9665    38.9495    75.6215 H            1 SAH224   0.0000
    44 H18         35.7326    40.6075    75.1786 H            1 SAH224   0.0000
    45 H19         32.3354    36.7163    74.0869 H            1 SAH224   0.0000
    46 H20         28.6408    39.2053    64.6568 H            1 SAH224   0.0000
@<TRIPOS>BOND
     1    1    2       1
     2    2    3       1
     3    2    6       1
     4    3    4       1
     5    4    5       1
     6    5    9       1
     7    6    7      ar
     8    6    8      ar
     9    9   10       1
    10   10   11       1
    11   10   12       1
    12   11   16       1
    13   12   13       1
    14   12   14       1
    15   14   15       1
    16   14   16       1
    17   16   17       1
    18   17   18       1
    19   17   26       1
    20   18   19       2
    21   19   20       1
    22   20   21      ar
    23   20   26      ar
    24   21   22       1
    25   21   23      ar
    26   23   24      ar
    27   24   25      ar
    28   25   26      ar
    29    1   27       1
    30    1   28       1
    31    2   29       1
    32    3   30       1
    33    3   31       1
    34    4   32       1
    35    4   33       1
    36    1   46       1
    37    9   34       1
    38    9   35       1
    39   10   36       1
    40   12   37       1
    41   13   38       1
    42   14   39       1
    43   15   40       1
    44   16   41       1
    45   18   42       1
    46   22   43       1
    47   22   44       1
    48   24   45       1
@<TRIPOS>SUBSTRUCTURE
     1 SAH224      1 GROUP             4 B     SAH     0 **** SAH B 224
