@<TRIPOS>MOLECULE
4c9p_CAM_2_ligand
   27    28     1     0     0
SMALL
NO_CHARGES


@<TRIPOS>ATOM
     1 C1          56.6590    14.6180    34.1220 C.3          1 CAM423   0.0000
     2 C2          56.7200    16.0590    33.8010 C.2          1 CAM423   0.0000
     3 O           57.1190    17.0040    34.5970 O.2          1 CAM423   0.0000
     4 C3          56.2570    16.2660    32.3980 C.3          1 CAM423   0.0000
     5 C4          56.0120    14.8570    32.0180 C.3          1 CAM423   0.0000
     6 C5          57.3630    14.2090    31.9130 C.3          1 CAM423   0.0000
     7 C6          57.8180    14.0590    33.3430 C.3          1 CAM423   0.0000
     8 C7          55.4660    14.2630    33.2830 C.3          1 CAM423   0.0000
     9 C8          55.3120    12.7880    33.1830 C.3          1 CAM423   0.0000
    10 C9          54.1920    14.8940    33.7260 C.3          1 CAM423   0.0000
    11 C10         56.6220    14.2680    35.5710 C.3          1 CAM423   0.0000
    12 H1          56.9627    16.6893    31.8299 H            1 CAM423   0.0000
    13 H2          55.4222    16.8150    32.3568 H            1 CAM423   0.0000
    14 H3          55.4283    14.7370    31.2150 H            1 CAM423   0.0000
    15 H4          57.9950    14.7893    31.3994 H            1 CAM423   0.0000
    16 H5          57.2938    13.3161    31.4680 H            1 CAM423   0.0000
    17 H6          57.9760    13.0984    33.5718 H            1 CAM423   0.0000
    18 H7          58.6523    14.5836    33.5124 H            1 CAM423   0.0000
    19 H8          54.5131    12.5736    32.6210 H            1 CAM423   0.0000
    20 H9          56.1301    12.3952    32.7630 H            1 CAM423   0.0000
    21 H10         55.1892    12.4029    34.0977 H            1 CAM423   0.0000
    22 H11         53.4501    14.6089    33.1190 H            1 CAM423   0.0000
    23 H12         53.9859    14.6076    34.6617 H            1 CAM423   0.0000
    24 H13         54.2845    15.8892    33.6948 H            1 CAM423   0.0000
    25 H14         56.5819    13.2740    35.6729 H            1 CAM423   0.0000
    26 H15         57.4454    14.6160    36.0191 H            1 CAM423   0.0000
    27 H16         55.8139    14.6792    35.9927 H            1 CAM423   0.0000
@<TRIPOS>BOND
     1    1    2       1
     2    1    7       1
     3    1    8       1
     4    1   11       1
     5    2    3       2
     6    2    4       1
     7    4    5       1
     8    5    6       1
     9    5    8       1
    10    6    7       1
    11    8    9       1
    12    8   10       1
    13    4   12       1
    14    4   13       1
    15    5   14       1
    16    6   15       1
    17    6   16       1
    18    7   17       1
    19    7   18       1
    20    9   19       1
    21    9   20       1
    22    9   21       1
    23   10   22       1
    24   10   23       1
    25   10   24       1
    26   11   25       1
    27   11   26       1
    28   11   27       1
@<TRIPOS>SUBSTRUCTURE
     1 CAM423      1 GROUP             4 B     CAM     0 **** CAM B 423
