@<TRIPOS>MOLECULE
5fl4_9FK_1_ligand
   35    38     1     0     0
SMALL
NO_CHARGES


@<TRIPOS>ATOM
     1 O22          9.0410   -24.6990    59.5870 O.2          1 9FK269   0.0000
     2 S21          8.9870   -26.1470    59.6370 S.o2         1 9FK269   0.0000
     3 O23          8.6000   -26.5610    60.9520 O.2          1 9FK269   0.0000
     4 N24          7.9810   -26.8370    58.6000 N.3          1 9FK269  -1.0000
     5 C19         10.5160   -26.7450    59.3650 C.2          1 9FK269   0.0000
     6 S20         11.9280   -25.7510    59.4290 S.3          1 9FK269   0.0000
     7 C16         12.9150   -27.1290    59.1360 C.2          1 9FK269   0.0000
     8 C17         12.1960   -28.3160    59.0370 C.2          1 9FK269   0.0000
     9 C18         10.8010   -28.0940    59.1720 C.2          1 9FK269   0.0000
    10 C14         14.3810   -26.8690    59.1260 C.2          1 9FK269   0.0000
    11 C15         15.4710   -27.7270    58.9540 C.2          1 9FK269   0.0000
    12 N11         16.5040   -26.8760    59.1330 N.pl3        1 9FK269   0.0000
    13 N12         16.1060   -25.5750    59.4360 N.2          1 9FK269   0.0000
    14 N13         14.7060   -25.5990    59.4400 N.2          1 9FK269   0.0000
    15 C10         17.8490   -27.0340    59.0900 C.ar         1 9FK269   0.0000
    16 C9          18.7110   -26.1380    58.4340 C.ar         1 9FK269   0.0000
    17 C8          20.1100   -26.2270    58.4350 C.ar         1 9FK269   0.0000
    18 C7          20.7590   -27.2390    59.1210 C.ar         1 9FK269   0.0000
    19 C4          20.0210   -28.1800    59.8270 C.ar         1 9FK269   0.0000
    20 C3          18.5250   -28.1170    59.8670 C.ar         1 9FK269   0.0000
    21 C5          20.6920   -29.1860    60.5000 C.ar         1 9FK269   0.0000
    22 C6          19.9690   -30.1280    61.2190 C.ar         1 9FK269   0.0000
    23 C1          18.5690   -30.0810    61.2570 C.ar         1 9FK269   0.0000
    24 C2          17.8530   -29.0850    60.6050 C.ar         1 9FK269   0.0000
    25 H1           7.6374   -27.6923    58.9878 H            1 9FK269   0.0000
    26 H2          12.6107   -29.2139    58.8891 H            1 9FK269   0.0000
    27 H3          10.1097   -28.8156    59.1334 H            1 9FK269   0.0000
    28 H4          15.4826   -28.7065    58.7527 H            1 9FK269   0.0000
    29 H5          18.2955   -25.3812    57.9294 H            1 9FK269   0.0000
    30 H6          20.6471   -25.5493    57.9327 H            1 9FK269   0.0000
    31 H7          21.7575   -27.2924    59.1082 H            1 9FK269   0.0000
    32 H8          21.6904   -29.2340    60.4686 H            1 9FK269   0.0000
    33 H9          20.4529   -30.8486    61.7156 H            1 9FK269   0.0000
    34 H10         18.0721   -30.7831    61.7670 H            1 9FK269   0.0000
    35 H11         16.8551   -29.0642    60.6664 H            1 9FK269   0.0000
@<TRIPOS>BOND
     1    1    2       2
     2    2    3       2
     3    2    4       1
     4    2    5       1
     5    5    6       1
     6    5    9       2
     7    6    7       1
     8    7    8       2
     9    7   10       1
    10    8    9       1
    11   10   11       2
    12   10   14       1
    13   11   12       1
    14   12   13       1
    15   12   15       1
    16   13   14       2
    17   15   16      ar
    18   15   20      ar
    19   16   17      ar
    20   17   18      ar
    21   18   19      ar
    22   19   20      ar
    23   19   21      ar
    24   20   24      ar
    25   21   22      ar
    26   22   23      ar
    27   23   24      ar
    28   24   35       1
    29    4   25       1
    30    8   26       1
    31    9   27       1
    32   11   28       1
    33   16   29       1
    34   17   30       1
    35   18   31       1
    36   21   32       1
    37   22   33       1
    38   23   34       1
@<TRIPOS>SUBSTRUCTURE
     1 9FK269      1 GROUP             4 A     9FK     0 **** 9FK A 269
