@<TRIPOS>MOLECULE
4kwe_GDP_2_ligand
   40    42     1     0     0
SMALL
NO_CHARGES


@<TRIPOS>ATOM
     1 PB          21.2730   -16.7970    28.7960 P.3          1 GDP1000   0.0000
     2 O1B         21.1980   -16.8190    27.2850 O.co2        1 GDP1000   0.0000
     3 O2B         22.1510   -15.6680    29.2550 O.co2        1 GDP1000  -1.0000
     4 O3B         19.8840   -16.6120    29.3530 O.co2        1 GDP1000  -1.0000
     5 O3A         21.8730   -18.1960    29.3220 O.3          1 GDP1000   0.0000
     6 PA          23.3470   -18.7090    28.9260 P.3          1 GDP1000   0.0000
     7 O1A         23.9110   -17.9680    27.7350 O.co2        1 GDP1000   0.0000
     8 O2A         24.2960   -18.6120    30.0990 O.co2        1 GDP1000  -1.0000
     9 O5'         23.0760   -20.2460    28.5650 O.3          1 GDP1000   0.0000
    10 C5'         22.5020   -20.6140    27.3230 C.3          1 GDP1000   0.0000
    11 C4'         23.3120   -21.7650    26.7440 C.3          1 GDP1000   0.0000
    12 O4'         24.6760   -21.3680    26.5940 O.3          1 GDP1000   0.0000
    13 C3'         23.3560   -22.9820    27.6490 C.3          1 GDP1000   0.0000
    14 O3'         22.2800   -23.8770    27.3610 O.3          1 GDP1000   0.0000
    15 C2'         24.7190   -23.5950    27.3860 C.3          1 GDP1000   0.0000
    16 O2'         24.6540   -24.6250    26.4000 O.3          1 GDP1000   0.0000
    17 C1'         25.5640   -22.4630    26.8290 C.3          1 GDP1000   0.0000
    18 N9          26.6110   -22.0510    27.8000 N.pl3        1 GDP1000   0.0000
    19 C8          26.4840   -22.0200    29.1390 C.2          1 GDP1000   0.0000
    20 N7          27.6270   -21.5880    29.7340 N.2          1 GDP1000   0.0000
    21 C5          28.5200   -21.3280    28.7640 C.2          1 GDP1000   0.0000
    22 C6          29.9210   -20.8370    28.7020 C.2          1 GDP1000   0.0000
    23 O6          30.5700   -20.5540    29.7320 O.2          1 GDP1000   0.0000
    24 N1          30.4800   -20.7000    27.4920 N.pl3        1 GDP1000   0.0000
    25 C2          29.8200   -20.9870    26.3540 C.2          1 GDP1000   0.0000
    26 N2          30.4790   -20.8160    25.1830 N.pl3        1 GDP1000   0.0000
    27 N3          28.5340   -21.4450    26.3370 N.2          1 GDP1000   0.0000
    28 C4          27.8430   -21.6320    27.4900 C.2          1 GDP1000   0.0000
    29 H5'1        22.5251   -19.8353    26.6960 H            1 GDP1000   0.0000
    30 H5'2        21.5546   -20.9030    27.4608 H            1 GDP1000   0.0000
    31 H4'         22.9381   -22.0231    25.8532 H            1 GDP1000   0.0000
    32 H3'         23.3003   -22.6898    28.6037 H            1 GDP1000   0.0000
    33 H5          22.5624   -24.8143    27.5651 H            1 GDP1000   0.0000
    34 H2'         25.1162   -23.9453    28.2342 H            1 GDP1000   0.0000
    35 H7          24.4825   -25.5033    26.8463 H            1 GDP1000   0.0000
    36 H1'         25.9894   -22.7468    25.9696 H            1 GDP1000   0.0000
    37 H9          25.6548   -22.2813    29.6332 H            1 GDP1000   0.0000
    38 H10         31.4229   -20.3723    27.4319 H            1 GDP1000   0.0000
    39 H11         30.0212   -21.0189    24.3174 H            1 GDP1000   0.0000
    40 H12         31.4233   -20.4869    25.1841 H            1 GDP1000   0.0000
@<TRIPOS>BOND
     1    1    2      ar
     2    1    3      ar
     3    1    4      ar
     4    1    5       1
     5    5    6       1
     6    6    7      ar
     7    6    8      ar
     8    6    9       1
     9    9   10       1
    10   10   11       1
    11   11   12       1
    12   11   13       1
    13   12   17       1
    14   13   14       1
    15   13   15       1
    16   15   16       1
    17   15   17       1
    18   17   18       1
    19   18   19       1
    20   18   28       1
    21   19   20       2
    22   20   21       1
    23   21   22       1
    24   21   28       2
    25   22   23       2
    26   22   24       1
    27   24   25       1
    28   25   26       1
    29   25   27       2
    30   27   28       1
    31   26   40       1
    32   26   39       1
    33   24   38       1
    34   10   29       1
    35   10   30       1
    36   11   31       1
    37   13   32       1
    38   14   33       1
    39   15   34       1
    40   16   35       1
    41   17   36       1
    42   19   37       1
@<TRIPOS>SUBSTRUCTURE
     1 GDP1000     1 GROUP             4 B     GDP     0 **** GDP B1000
