@<TRIPOS>MOLECULE
3l03_4OH_1_ligand
   46    49     1     0     0
SMALL
NO_CHARGES


@<TRIPOS>ATOM
     1 CAA        -24.0990     3.9650    -5.3780 C.3          1 4OH551   0.0000
     2 CAB        -25.5400     4.3330    -5.0550 C.3          1 4OH551   0.0000
     3 CAC        -23.9070     4.1140    -6.8790 C.3          1 4OH551   0.0000
     4 CAD        -23.0650     4.8570    -4.7140 C.3          1 4OH551   0.0000
     5 CAE        -26.5340     3.4240    -5.7340 C.3          1 4OH551   0.0000
     6 CAF        -26.0250     4.2490    -3.6190 C.3          1 4OH551   0.0000
     7 CAG        -22.4720     3.9390    -7.2920 C.ar         1 4OH551   0.0000
     8 CAH        -24.8820     3.2130    -7.6280 C.3          1 4OH551   0.0000
     9 CAI        -21.6640     4.2770    -4.8940 C.3          1 4OH551   0.0000
    10 CAJ        -27.8390     3.9920    -5.2190 C.3          1 4OH551   0.0000
    11 CAK        -26.3400     3.4970    -7.2390 C.3          1 4OH551   0.0000
    12 CAL        -26.3790     1.9810    -5.2630 C.3          1 4OH551   0.0000
    13 CAM        -27.5510     4.1700    -3.7320 C.3          1 4OH551   0.0000
    14 OAN        -25.6370     5.4240    -2.9170 O.3          1 4OH551   0.0000
    15 CAO        -21.4170     4.0450    -6.3740 C.ar         1 4OH551   0.0000
    16 CAP        -22.1540     3.7040    -8.6310 C.ar         1 4OH551   0.0000
    17 OAQ        -28.9890     3.1520    -5.4390 O.3          1 4OH551   0.0000
    18 OAR        -28.1380     5.3880    -3.2460 O.3          1 4OH551   0.0000
    19 CAS        -20.1050     3.8940    -6.7830 C.ar         1 4OH551   0.0000
    20 CAT        -20.8070     3.5640    -9.0380 C.ar         1 4OH551   0.0000
    21 CAU        -19.7800     3.6590    -8.1090 C.ar         1 4OH551   0.0000
    22 OAV        -18.4630     3.5200    -8.4330 O.3          1 4OH551   0.0000
    23 HAA        -23.9334     3.0143    -5.1158 H            1 4OH551   0.0000
    24 HAB        -25.7010     5.2646    -5.3810 H            1 4OH551   0.0000
    25 HAC        -24.1564     5.0553    -7.1063 H            1 4OH551   0.0000
    26 HAD1       -23.2692     4.9271    -3.7376 H            1 4OH551   0.0000
    27 HAD2       -23.1004     5.7665    -5.1281 H            1 4OH551   0.0000
    28 HAF        -25.6611     3.4328    -3.1702 H            1 4OH551   0.0000
    29 HAH1       -24.6703     2.2594    -7.4140 H            1 4OH551   0.0000
    30 HAH2       -24.7740     3.3660    -8.6103 H            1 4OH551   0.0000
    31 HAI1       -21.5935     3.4096    -4.4015 H            1 4OH551   0.0000
    32 HAI2       -20.9859     4.9193    -4.5367 H            1 4OH551   0.0000
    33 HAJ        -27.9980     4.8872    -5.6353 H            1 4OH551   0.0000
    34 HAK1       -26.5892     4.4122    -7.5556 H            1 4OH551   0.0000
    35 HAK2       -26.9317     2.8202    -7.6769 H            1 4OH551   0.0000
    36 HAL1       -27.0496     1.4042    -5.7295 H            1 4OH551   0.0000
    37 HAL2       -25.4566     1.6583    -5.4754 H            1 4OH551   0.0000
    38 HAL3       -26.5292     1.9348    -4.2754 H            1 4OH551   0.0000
    39 HAM        -27.8974     3.3872    -3.2151 H            1 4OH551   0.0000
    40 HAN        -26.4518     5.8937    -2.5773 H            1 4OH551   0.0000
    41 HAP        -22.8859     3.6340    -9.3088 H            1 4OH551   0.0000
    42 HAQ        -29.8040     3.5995    -5.0708 H            1 4OH551   0.0000
    43 HAR        -29.1335     5.3316    -3.3218 H            1 4OH551   0.0000
    44 HAS        -19.3726     3.9559    -6.1050 H            1 4OH551   0.0000
    45 HAT        -20.5932     3.3957   -10.0003 H            1 4OH551   0.0000
    46 HAV        -18.1968     3.3496    -9.3817 H            1 4OH551   0.0000
@<TRIPOS>BOND
     1    1    2       1
     2    1    3       1
     3    1    4       1
     4    2    5       1
     5    2    6       1
     6    3    7       1
     7    3    8       1
     8    4    9       1
     9    5   10       1
    10    5   11       1
    11    5   12       1
    12    6   13       1
    13    6   14       1
    14    7   15      ar
    15    7   16      ar
    16    8   11       1
    17    9   15       1
    18   10   13       1
    19   10   17       1
    20   13   18       1
    21   15   19      ar
    22   16   20      ar
    23   19   21      ar
    24   20   21      ar
    25   21   22       1
    26    1   23       1
    27    2   24       1
    28    3   25       1
    29    4   26       1
    30    4   27       1
    31    6   28       1
    32    8   29       1
    33    8   30       1
    34    9   31       1
    35    9   32       1
    36   10   33       1
    37   11   34       1
    38   11   35       1
    39   12   36       1
    40   12   37       1
    41   12   38       1
    42   13   39       1
    43   14   40       1
    44   16   41       1
    45   17   42       1
    46   18   43       1
    47   19   44       1
    48   20   45       1
    49   22   46       1
@<TRIPOS>SUBSTRUCTURE
     1 4OH551      1 GROUP             4 A     4OH     0 **** 4OH A 551
