@<TRIPOS>MOLECULE
3tfy_COA_5_ligand
   81    83     1     0     0
SMALL
NO_CHARGES


@<TRIPOS>ATOM
     1 N1A         -2.7320   -24.7480     8.9990 N.ar         1 COA201   0.0000
     2 C2A         -4.0390   -24.9720     9.1990 C.ar         1 COA201   0.0000
     3 N3A         -4.5870   -24.7880    10.4150 N.ar         1 COA201   0.0000
     4 C4A         -3.8290   -24.3760    11.4600 C.ar         1 COA201   0.0000
     5 C5A         -2.4840   -24.1390    11.2870 C.ar         1 COA201   0.0000
     6 C6A         -1.9380   -24.3320    10.0190 C.ar         1 COA201   0.0000
     7 N6A         -0.6180   -24.1090     9.7930 N.pl3        1 COA201   0.0000
     8 N7A         -1.9850   -23.7550    12.4870 N.2          1 COA201   1.0000
     9 C8A         -3.0040   -23.7550    13.3760 C.2          1 COA201   0.0000
    10 N9A         -4.1170   -24.1330    12.7280 N.pl3        1 COA201   0.0000
    11 C1B         -5.4670   -24.2700    13.2920 C.3          1 COA201   0.0000
    12 C2B         -5.7970   -25.7330    13.3730 C.3          1 COA201   0.0000
    13 O2B         -7.2170   -25.8350    13.2610 O.3          1 COA201   0.0000
    14 C3B         -5.3100   -26.0930    14.7650 C.3          1 COA201   0.0000
    15 O3B         -5.9610   -27.2400    15.2880 O.3          1 COA201   0.0000
    16 P3B         -5.2680   -28.6520    14.9710 P.3          1 COA201   0.0000
    17 O7A         -5.9330   -29.5190    16.0150 O.co2        1 COA201   0.0000
    18 O8A         -5.6350   -28.9700    13.5270 O.co2        1 COA201  -1.0000
    19 O9A         -3.7890   -28.3900    15.1990 O.co2        1 COA201  -1.0000
    20 C4B         -5.6150   -24.8500    15.5790 C.3          1 COA201   0.0000
    21 O4B         -5.4670   -23.7770    14.6380 O.3          1 COA201   0.0000
    22 C5B         -4.7430   -24.6780    16.8260 C.3          1 COA201   0.0000
    23 O5B         -3.3640   -24.6910    16.5000 O.3          1 COA201   0.0000
    24 P1A         -2.2330   -24.6500    17.6460 P.3          1 COA201   0.0000
    25 O1A         -1.6040   -26.0210    17.8380 O.co2        1 COA201   0.0000
    26 O2A         -2.8010   -23.8830    18.8040 O.co2        1 COA201  -1.0000
    27 O3A         -1.2710   -23.7460    16.7440 O.3          1 COA201   0.0000
    28 P2A          0.2050   -23.2310    17.0850 P.3          1 COA201   0.0000
    29 O4A          0.4250   -23.2080    18.5730 O.co2        1 COA201   0.0000
    30 O5A          1.1710   -23.9300    16.1660 O.co2        1 COA201  -1.0000
    31 O6A         -0.0260   -21.7490    16.4970 O.3          1 COA201   0.0000
    32 CBP          0.7130   -19.7950    15.3530 C.3          1 COA201   0.0000
    33 CCP          1.0880   -20.9000    16.3250 C.3          1 COA201   0.0000
    34 CDP          1.3030   -18.3930    15.4730 C.3          1 COA201   0.0000
    35 CEP         -0.0870   -20.1320    14.0940 C.3          1 COA201   0.0000
    36 CAP          2.0210   -20.3200    14.7100 C.3          1 COA201   0.0000
    37 OAP          1.7570   -21.0060    13.4770 O.3          1 COA201   0.0000
    38 C9P          3.1570   -19.3360    14.5020 C.2          1 COA201   0.0000
    39 O9P          4.0680   -19.0940    15.4480 O.2          1 COA201   0.0000
    40 N8P          3.2840   -18.6880    13.3540 N.am         1 COA201   0.0000
    41 C7P          4.3700   -17.7460    13.1120 C.3          1 COA201   0.0000
    42 C6P          4.0690   -16.4850    13.9250 C.3          1 COA201   0.0000
    43 C5P          2.8200   -15.8270    13.3980 C.2          1 COA201   0.0000
    44 O5P          2.6510   -15.7190    12.2010 O.2          1 COA201   0.0000
    45 N4P          1.9380   -15.3630    14.2740 N.am         1 COA201   0.0000
    46 C3P          0.6850   -14.7160    13.9150 C.3          1 COA201   0.0000
    47 C2P          1.0310   -13.2400    13.7280 C.3          1 COA201   0.0000
    48 S1P          1.2050   -12.4460    15.3390 S.3          1 COA201   0.0000
    49 H2A         -4.6115   -25.2783     8.4385 H            1 COA201   0.0000
    50 H6A1        -0.0277   -23.8025    10.5397 H            1 COA201   0.0000
    51 H6A2        -0.2361   -24.2512     8.8798 H            1 COA201   0.0000
    52 H8A         -2.9397   -23.5157    14.3448 H            1 COA201   0.0000
    53 H1B         -6.1384   -23.7830    12.7334 H            1 COA201   0.0000
    54 H2B         -5.3279   -26.2612    12.6652 H            1 COA201   0.0000
    55 H7          -7.4494   -26.3881    12.4609 H            1 COA201   0.0000
    56 H3B         -4.3222   -26.2474    14.7455 H            1 COA201   0.0000
    57 H4B         -6.5721   -24.8880    15.8662 H            1 COA201   0.0000
    58 H5B1        -4.9338   -25.4258    17.4618 H            1 COA201   0.0000
    59 H5B2        -4.9661   -23.8056    17.2609 H            1 COA201   0.0000
    60 HCP1         1.8569   -21.4239    15.9585 H            1 COA201   0.0000
    61 HCP2         1.3459   -20.5009    17.2049 H            1 COA201   0.0000
    62 HDP1         0.9353   -17.8132    14.7459 H            1 COA201   0.0000
    63 HDP2         1.0621   -18.0050    16.3626 H            1 COA201   0.0000
    64 HDP3         2.2983   -18.4419    15.3891 H            1 COA201   0.0000
    65 HEP1        -0.2479   -19.2970    13.5678 H            1 COA201   0.0000
    66 HEP2         0.4277   -20.7834    13.5364 H            1 COA201   0.0000
    67 HEP3        -0.9639   -20.5360    14.3545 H            1 COA201   0.0000
    68 HAP          2.3735   -21.0141    15.3377 H            1 COA201   0.0000
    69 H21          2.6177   -21.3326    13.0864 H            1 COA201   0.0000
    70 H8P          2.6135   -18.8501    12.6300 H            1 COA201   0.0000
    71 H7P1         4.4181   -17.5221    12.1386 H            1 COA201   0.0000
    72 H7P2         5.2393   -18.1432    13.4060 H            1 COA201   0.0000
    73 H6P1         4.8371   -15.8492    13.8489 H            1 COA201   0.0000
    74 H6P2         3.9348   -16.7323    14.8846 H            1 COA201   0.0000
    75 H4P          2.1485   -15.4648    15.2463 H            1 COA201   0.0000
    76 H3P1         0.0114   -14.8278    14.6456 H            1 COA201   0.0000
    77 H3P2         0.3229   -15.1009    13.0660 H            1 COA201   0.0000
    78 H2P1         0.3012   -12.7903    13.2131 H            1 COA201   0.0000
    79 H2P2         1.8913   -13.1617    13.2243 H            1 COA201   0.0000
    80 H1P          0.3449   -12.5232    15.8433 H            1 COA201   0.0000
    81 H7A         -1.0338   -23.5147    12.6804 H            1 COA201   0.0000
@<TRIPOS>BOND
     1    1    2      ar
     2    1    6      ar
     3    2    3      ar
     4    3    4      ar
     5    4    5      ar
     6    4   10       1
     7    5    6      ar
     8    5    8       1
     9    6    7       1
    10    8    9       2
    11    9   10       1
    12   10   11       1
    13   11   12       1
    14   11   21       1
    15   12   13       1
    16   12   14       1
    17   14   15       1
    18   14   20       1
    19   15   16       1
    20   16   17      ar
    21   16   18      ar
    22   16   19      ar
    23   20   21       1
    24   20   22       1
    25   22   23       1
    26   23   24       1
    27   24   25      ar
    28   24   26      ar
    29   24   27       1
    30   27   28       1
    31   28   29      ar
    32   28   30      ar
    33   28   31       1
    34   31   33       1
    35   32   33       1
    36   32   34       1
    37   32   35       1
    38   32   36       1
    39   36   37       1
    40   36   38       1
    41   38   39       2
    42   38   40      am
    43   40   41       1
    44   41   42       1
    45   42   43       1
    46   43   44       2
    47   43   45      am
    48   45   46       1
    49   46   47       1
    50   47   48       1
    51    2   49       1
    52    7   50       1
    53    7   51       1
    54    9   52       1
    55   11   53       1
    56   12   54       1
    57   13   55       1
    58   14   56       1
    59   48   80       1
    60   47   79       1
    61   20   57       1
    62   22   58       1
    63   22   59       1
    64   47   78       1
    65   46   77       1
    66   33   60       1
    67   33   61       1
    68   34   62       1
    69   34   63       1
    70   34   64       1
    71   35   65       1
    72   35   66       1
    73   35   67       1
    74   36   68       1
    75   37   69       1
    76   40   70       1
    77   41   71       1
    78   41   72       1
    79   42   73       1
    80   42   74       1
    81   45   75       1
    82   46   76       1
    83    8   81       1
@<TRIPOS>SUBSTRUCTURE
     1 COA201      1 GROUP             4 B     COA     0 **** COA B 201
