@<TRIPOS>MOLECULE
3iwj_NAD_2_ligand
   39    41     1     0     0
SMALL
NO_CHARGES


@<TRIPOS>ATOM
     1 PA           1.3470    12.0810    25.2050 P.3          1 NAD504   0.0000
     2 O1A          1.4000    13.5520    25.5210 O.co2        1 NAD504   0.0000
     3 O2A          0.7970    11.6560    23.8690 O.co2        1 NAD504  -1.0000
     4 O5B          2.8210    11.4740    25.4220 O.3          1 NAD504   0.0000
     5 C5B          3.2010    10.1680    24.9890 C.3          1 NAD504   0.0000
     6 C4B          4.6620    10.1710    24.5450 C.3          1 NAD504   0.0000
     7 O4B          4.8080    10.9960    23.3860 O.3          1 NAD504   0.0000
     8 C3B          5.5990    10.7500    25.5980 C.3          1 NAD504   0.0000
     9 O3B          6.8420    10.0440    25.5850 O.3          1 NAD504   0.0000
    10 C2B          5.7960    12.1860    25.1370 C.3          1 NAD504   0.0000
    11 O2B          7.0130    12.7580    25.6050 O.3          1 NAD504   0.0000
    12 C1B          5.7590    12.0330    23.6220 C.3          1 NAD504   0.0000
    13 N9A          5.4220    13.3280    22.9690 N.pl3        1 NAD504   0.0000
    14 C8A          4.7260    14.3360    23.5270 C.2          1 NAD504   0.0000
    15 N7A          4.6260    15.3860    22.6890 N.2          1 NAD504   0.0000
    16 C5A          5.2830    15.0670    21.5630 C.ar         1 NAD504   0.0000
    17 C6A          5.5610    15.7310    20.2680 C.ar         1 NAD504   0.0000
    18 N6A          5.1040    16.9770    20.0130 N.pl3        1 NAD504   0.0000
    19 N1A          6.2810    15.0400    19.3520 N.ar         1 NAD504   0.0000
    20 C2A          6.7390    13.7890    19.5910 C.ar         1 NAD504   0.0000
    21 N3A          6.5260    13.1280    20.7450 N.ar         1 NAD504   0.0000
    22 C4A          5.8100    13.7040    21.7500 C.ar         1 NAD504   0.0000
    23 O3           0.4730    11.2690    26.2760 O.3          1 NAD504   0.0000
    24 PN           0.6030    11.4440    27.8750 P.3          1 NAD504   0.0000
    25 O1N          1.1130    12.8630    28.0850 O.co2        1 NAD504   0.0000
    26 O2N          1.5620    10.3140    28.2160 O.co2        1 NAD504  -1.0000
    27 O5D         -0.8180    11.2180    28.3650 O.co2        1 NAD504  -1.0000
    28 H5B1         2.6221     9.8917    24.2218 H            1 NAD504   0.0000
    29 H5B2         3.0853     9.5220    25.7435 H            1 NAD504   0.0000
    30 H4B          4.9447     9.2371    24.3260 H            1 NAD504   0.0000
    31 H3B          5.1798    10.7198    26.5054 H            1 NAD504   0.0000
    32 H5           6.6787     9.0778    25.7846 H            1 NAD504   0.0000
    33 H2B          5.0235    12.7452    25.4379 H            1 NAD504   0.0000
    34 H7           7.0192    12.7563    26.6050 H            1 NAD504   0.0000
    35 H1B          6.6571    11.7307    23.3027 H            1 NAD504   0.0000
    36 H8A          4.3333    14.3089    24.4463 H            1 NAD504   0.0000
    37 H6A1         5.3002    17.4114    19.1339 H            1 NAD504   0.0000
    38 H6A2         4.5696    17.4646    20.7034 H            1 NAD504   0.0000
    39 H2A          7.2632    13.3313    18.8729 H            1 NAD504   0.0000
@<TRIPOS>BOND
     1    1    2      ar
     2    1    3      ar
     3    1    4       1
     4    1   23       1
     5    4    5       1
     6    5    6       1
     7    6    7       1
     8    6    8       1
     9    7   12       1
    10    8    9       1
    11    8   10       1
    12   10   11       1
    13   10   12       1
    14   12   13       1
    15   13   14       1
    16   13   22       1
    17   14   15       2
    18   15   16       1
    19   16   17      ar
    20   16   22      ar
    21   17   18       1
    22   17   19      ar
    23   19   20      ar
    24   20   21      ar
    25   21   22      ar
    26   23   24       1
    27   24   25      ar
    28   24   26      ar
    29   24   27      ar
    30   20   39       1
    31    5   28       1
    32    5   29       1
    33    6   30       1
    34    8   31       1
    35    9   32       1
    36   10   33       1
    37   11   34       1
    38   12   35       1
    39   14   36       1
    40   18   37       1
    41   18   38       1
@<TRIPOS>SUBSTRUCTURE
     1 NAD504      1 GROUP             4 B     NAD     0 **** NAD B 504
