@<TRIPOS>MOLECULE
1txt_CAA_1_ligand
   90    92     1     0     0
SMALL
NO_CHARGES


@<TRIPOS>ATOM
     1 N1A        -14.6560   -21.4030    59.4920 N.ar         1 CAA5866   0.0000
     2 C2A        -13.3540   -21.4950    59.0640 C.ar         1 CAA5866   0.0000
     3 N3A        -13.0400   -21.8530    57.7960 N.ar         1 CAA5866   0.0000
     4 C4A        -14.0590   -22.1330    56.9180 C.ar         1 CAA5866   0.0000
     5 C5A        -15.4610   -22.0660    57.2800 C.ar         1 CAA5866   0.0000
     6 C6A        -15.7310   -21.6810    58.6620 C.ar         1 CAA5866   0.0000
     7 N6A        -17.0310   -21.6110    59.0320 N.pl3        1 CAA5866   0.0000
     8 N7A        -16.1730   -22.4210    56.1810 N.2          1 CAA5866   0.0000
     9 C8A        -15.3420   -22.7080    55.1380 C.2          1 CAA5866   0.0000
    10 N9A        -13.9840   -22.6040    55.6370 N.pl3        1 CAA5866   0.0000
    11 C1B        -12.9620   -21.9210    54.8650 C.3          1 CAA5866   0.0000
    12 C2B        -12.1020   -22.9810    54.1860 C.3          1 CAA5866   0.0000
    13 O2B        -12.7760   -24.2240    54.0140 O.3          1 CAA5866   0.0000
    14 C3B        -11.8750   -22.4350    52.8290 C.3          1 CAA5866   0.0000
    15 O3B        -10.4890   -22.4530    52.6970 O.3          1 CAA5866   0.0000
    16 P3B         -9.5130   -23.6690    53.0500 P.3          1 CAA5866   0.0000
    17 O7A        -10.3310   -24.7400    53.7530 O.co2        1 CAA5866   0.0000
    18 O8A         -8.9670   -24.0440    51.6820 O.co2        1 CAA5866  -1.0000
    19 O9A         -8.5110   -22.8940    53.9080 O.co2        1 CAA5866  -1.0000
    20 C4B        -12.3350   -20.9830    52.9730 C.3          1 CAA5866   0.0000
    21 O4B        -13.4270   -21.0100    53.8710 O.3          1 CAA5866   0.0000
    22 C5B        -12.7270   -20.2570    51.7020 C.3          1 CAA5866   0.0000
    23 O5B        -12.8060   -21.1220    50.5870 O.3          1 CAA5866   0.0000
    24 P1A        -14.2620   -21.2940    50.0040 P.3          1 CAA5866   0.0000
    25 O1A        -14.2650   -22.6850    49.4430 O.co2        1 CAA5866   0.0000
    26 O2A        -15.3000   -20.8070    50.9940 O.co2        1 CAA5866  -1.0000
    27 O3A        -14.3120   -20.2560    48.7960 O.3          1 CAA5866   0.0000
    28 P2A        -15.5080   -19.1800    48.6550 P.3          1 CAA5866   0.0000
    29 O4A        -16.5740   -19.8890    47.9040 O.co2        1 CAA5866   0.0000
    30 O5A        -15.7980   -18.3930    49.8710 O.co2        1 CAA5866  -1.0000
    31 O6A        -14.5240   -18.2870    47.7580 O.3          1 CAA5866   0.0000
    32 CBP        -12.4110   -17.1810    47.2270 C.3          1 CAA5866   0.0000
    33 CCP        -13.2800   -17.8120    48.3070 C.3          1 CAA5866   0.0000
    34 CDP        -11.8740   -18.3480    46.3660 C.3          1 CAA5866   0.0000
    35 CEP        -11.3100   -16.3650    47.9030 C.3          1 CAA5866   0.0000
    36 CAP        -13.2600   -16.1780    46.3840 C.3          1 CAA5866   0.0000
    37 OAP        -13.6310   -15.0150    47.1620 O.3          1 CAA5866   0.0000
    38 C9P        -12.6750   -15.8350    45.0040 C.2          1 CAA5866   0.0000
    39 O9P        -12.9710   -16.5170    44.0210 O.2          1 CAA5866   0.0000
    40 N8P        -11.8460   -14.7920    44.8700 N.am         1 CAA5866   0.0000
    41 C7P        -11.3460   -14.5850    43.5430 C.3          1 CAA5866   0.0000
    42 C6P        -10.1400   -13.7000    43.4270 C.3          1 CAA5866   0.0000
    43 C5P         -8.9380   -14.2920    44.1230 C.2          1 CAA5866   0.0000
    44 O5P         -8.5800   -13.6930    45.1110 O.2          1 CAA5866   0.0000
    45 N4P         -8.2780   -15.3610    43.6460 N.am         1 CAA5866   0.0000
    46 C3P         -7.2270   -15.9940    44.4400 C.3          1 CAA5866   0.0000
    47 C2P         -5.7790   -15.6370    44.1260 C.3          1 CAA5866   0.0000
    48 S1P         -5.3510   -15.5870    42.3890 S.3          1 CAA5866   0.0000
    49 C1          -5.3500   -13.9330    42.3150 C.2          1 CAA5866   0.0000
    50 O1          -4.5680   -13.2940    42.9390 O.2          1 CAA5866   0.0000
    51 C2          -6.3400   -13.2370    41.4580 C.3          1 CAA5866   0.0000
    52 C3          -6.5490   -11.8270    41.9220 C.2          1 CAA5866   0.0000
    53 O3          -5.6420   -11.1080    42.5910 O.2          1 CAA5866   0.0000
    54 C4          -7.7350   -11.3190    41.6290 C.3          1 CAA5866   0.0000
    55 H2A        -12.6162   -21.2917    59.7076 H            1 CAA5866   0.0000
    56 H6A1       -17.7509   -21.8278    58.3726 H            1 CAA5866   0.0000
    57 H6A2       -17.2716   -21.3425    59.9647 H            1 CAA5866   0.0000
    58 H8A        -15.6169   -22.9451    54.2062 H            1 CAA5866   0.0000
    59 H1B        -12.3814   -21.4135    55.5017 H            1 CAA5866   0.0000
    60 H2B        -11.2369   -23.1062    54.6717 H            1 CAA5866   0.0000
    61 H7         -12.1110   -24.9704    54.0415 H            1 CAA5866   0.0000
    62 H3B        -12.3532   -22.9379    52.1090 H            1 CAA5866   0.0000
    63 H4B        -11.5948   -20.4678    53.4051 H            1 CAA5866   0.0000
    64 H5B1       -12.0446   -19.5510    51.5125 H            1 CAA5866   0.0000
    65 H5B2       -13.6202   -19.8289    51.8397 H            1 CAA5866   0.0000
    66 HCP1       -12.7878   -18.5812    48.7146 H            1 CAA5866   0.0000
    67 HCP2       -13.4733   -17.1290    49.0114 H            1 CAA5866   0.0000
    68 HDP1       -11.2935   -17.9849    45.6372 H            1 CAA5866   0.0000
    69 HDP2       -11.3393   -18.9676    46.9406 H            1 CAA5866   0.0000
    70 HDP3       -12.6420   -18.8461    45.9634 H            1 CAA5866   0.0000
    71 HEP1       -10.7307   -15.9442    47.2049 H            1 CAA5866   0.0000
    72 HEP2       -11.7235   -15.6509    48.4679 H            1 CAA5866   0.0000
    73 HEP3       -10.7554   -16.9659    48.4785 H            1 CAA5866   0.0000
    74 HAP        -14.1191   -16.6537    46.1952 H            1 CAA5866   0.0000
    75 H21        -14.5058   -14.6592    46.8332 H            1 CAA5866   0.0000
    76 H8P        -11.5949   -14.2023    45.6376 H            1 CAA5866   0.0000
    77 H7P1       -12.0793   -14.1762    42.9997 H            1 CAA5866   0.0000
    78 H7P2       -11.1078   -15.4786    43.1626 H            1 CAA5866   0.0000
    79 H6P1       -10.3486   -12.8135    43.8401 H            1 CAA5866   0.0000
    80 H6P2        -9.9234   -13.5740    42.4589 H            1 CAA5866   0.0000
    81 H4P         -8.5072   -15.7251    42.7433 H            1 CAA5866   0.0000
    82 H3P1        -7.3213   -16.9827    44.3237 H            1 CAA5866   0.0000
    83 H3P2        -7.3917   -15.7537    45.3966 H            1 CAA5866   0.0000
    84 H2P1        -5.1925   -16.3160    44.5675 H            1 CAA5866   0.0000
    85 H2P2        -5.5941   -14.7341    44.5141 H            1 CAA5866   0.0000
    86 H32         -7.2105   -13.7276    41.4981 H            1 CAA5866   0.0000
    87 H33         -6.0068   -13.2258    40.5152 H            1 CAA5866   0.0000
    88 H34         -7.7901   -10.3814    41.9723 H            1 CAA5866   0.0000
    89 H35         -7.8617   -11.3187    40.6371 H            1 CAA5866   0.0000
    90 H36         -8.4496   -11.8729    42.0562 H            1 CAA5866   0.0000
@<TRIPOS>BOND
     1    1    2      ar
     2    1    6      ar
     3    2    3      ar
     4    3    4      ar
     5    4    5      ar
     6    4   10       1
     7    5    6      ar
     8    5    8       1
     9    6    7       1
    10    8    9       2
    11    9   10       1
    12   10   11       1
    13   11   12       1
    14   11   21       1
    15   12   13       1
    16   12   14       1
    17   14   15       1
    18   14   20       1
    19   15   16       1
    20   16   17      ar
    21   16   18      ar
    22   16   19      ar
    23   20   21       1
    24   20   22       1
    25   22   23       1
    26   23   24       1
    27   24   25      ar
    28   24   26      ar
    29   24   27       1
    30   27   28       1
    31   28   29      ar
    32   28   30      ar
    33   28   31       1
    34   31   33       1
    35   32   33       1
    36   32   34       1
    37   32   35       1
    38   32   36       1
    39   36   37       1
    40   36   38       1
    41   38   39       2
    42   38   40      am
    43   40   41       1
    44   41   42       1
    45   42   43       1
    46   43   44       2
    47   43   45      am
    48   45   46       1
    49   46   47       1
    50   47   48       1
    51   48   49       1
    52   49   50       2
    53   49   51       1
    54   51   52       1
    55   52   53       2
    56   52   54       1
    57    2   55       1
    58    7   56       1
    59    7   57       1
    60    9   58       1
    61   11   59       1
    62   12   60       1
    63   13   61       1
    64   14   62       1
    65   54   90       1
    66   54   89       1
    67   20   63       1
    68   22   64       1
    69   22   65       1
    70   54   88       1
    71   51   87       1
    72   33   66       1
    73   33   67       1
    74   34   68       1
    75   34   69       1
    76   34   70       1
    77   35   71       1
    78   35   72       1
    79   35   73       1
    80   36   74       1
    81   37   75       1
    82   40   76       1
    83   41   77       1
    84   41   78       1
    85   42   79       1
    86   42   80       1
    87   45   81       1
    88   46   82       1
    89   46   83       1
    90   47   84       1
    91   47   85       1
    92   51   86       1
@<TRIPOS>SUBSTRUCTURE
     1 CAA5866     1 GROUP             4 A     CAA     0 **** CAA A5866
