@<TRIPOS>MOLECULE
1nq7_ARL_1_ligand
   56    56     1     0     0
SMALL
NO_CHARGES


@<TRIPOS>ATOM
     1 C16         29.4730    25.8200    10.5960 C.3          1 ARL800   0.0000
     2 C9          28.2120    25.0270    10.1460 C.2          1 ARL800   0.0000
     3 C13         27.1010    25.8300     9.5470 C.2          1 ARL800   0.0000
     4 C8          27.0650    27.1570     9.3530 C.2          1 ARL800   0.0000
     5 C44         25.9720    27.9480     8.7790 C.2          1 ARL800   0.0000
     6 C42         26.0390    29.1630     8.1030 C.2          1 ARL800   0.0000
     7 C7          27.4130    29.8680     7.8650 C.3          1 ARL800   0.0000
     8 C3          24.7640    29.8650     7.5910 C.ar         1 ARL800   0.0000
     9 C4          23.4430    29.2410     7.6550 C.ar         1 ARL800   0.0000
    10 C5          22.2030    29.8970     7.1850 C.ar         1 ARL800   0.0000
    11 C6          22.3610    31.2370     6.6270 C.ar         1 ARL800   0.0000
    12 C1          23.6410    31.9390     6.5230 C.ar         1 ARL800   0.0000
    13 C2          24.8180    31.2110     7.0160 C.ar         1 ARL800   0.0000
    14 C10         23.7890    33.4010     5.9150 C.3          1 ARL800   0.0000
    15 C11         22.4540    34.1230     5.5530 C.3          1 ARL800   0.0000
    16 C15         24.6250    33.3620     4.6300 C.3          1 ARL800   0.0000
    17 C19         24.4790    34.3340     6.9430 C.3          1 ARL800   0.0000
    18 C23         20.7870    29.1800     7.2770 C.3          1 ARL800   0.0000
    19 C24         20.0370    29.0210     5.9380 C.3          1 ARL800   0.0000
    20 C28         19.8360    29.9690     8.1910 C.3          1 ARL800   0.0000
    21 C32         20.9070    27.7900     7.8860 C.3          1 ARL800   0.0000
    22 C14         28.0320    23.6710    10.2480 C.2          1 ARL800   0.0000
    23 C12         28.9430    22.6070    10.8000 C.2          1 ARL800   0.0000
    24 O2          30.0230    22.8100    11.2630 O.co2        1 ARL800   0.0000
    25 O3          28.5350    21.4670    10.7540 O.co2        1 ARL800  -1.0000
    26 H1          30.1459    25.1869    10.9786 H            1 ARL800   0.0000
    27 H2          29.8691    26.2914     9.8080 H            1 ARL800   0.0000
    28 H3          29.2143    26.4913    11.2906 H            1 ARL800   0.0000
    29 H4          26.2918    25.3186     9.2578 H            1 ARL800   0.0000
    30 H5          27.8789    27.6663     9.6326 H            1 ARL800   0.0000
    31 H6          25.0555    27.5630     8.8877 H            1 ARL800   0.0000
    32 H7          27.2672    30.7229     7.3671 H            1 ARL800   0.0000
    33 H8          27.8438    30.0646     8.7458 H            1 ARL800   0.0000
    34 H9          28.0074    29.2677     7.3298 H            1 ARL800   0.0000
    35 H10         23.3740    28.3197     8.0377 H            1 ARL800   0.0000
    36 H11         21.5422    31.7051     6.2946 H            1 ARL800   0.0000
    37 H12         25.7089    31.6612     6.9554 H            1 ARL800   0.0000
    38 H13         22.6553    35.0291     5.1810 H            1 ARL800   0.0000
    39 H14         21.9585    33.5852     4.8709 H            1 ARL800   0.0000
    40 H15         21.8925    34.2174     6.3751 H            1 ARL800   0.0000
    41 H16         24.7097    34.2869     4.2592 H            1 ARL800   0.0000
    42 H17         25.5346    33.0004     4.8349 H            1 ARL800   0.0000
    43 H18         24.1759    32.7733     3.9579 H            1 ARL800   0.0000
    44 H19         24.5684    35.2507     6.5537 H            1 ARL800   0.0000
    45 H20         23.9275    34.3780     7.7760 H            1 ARL800   0.0000
    46 H21         25.3862    33.9751     7.1625 H            1 ARL800   0.0000
    47 H22         19.1630    28.5621     6.0979 H            1 ARL800   0.0000
    48 H23         19.8718    29.9231     5.5393 H            1 ARL800   0.0000
    49 H24         20.5901    28.4748     5.3089 H            1 ARL800   0.0000
    50 H25         18.9527    29.5023     8.2354 H            1 ARL800   0.0000
    51 H26         20.2283    30.0279     9.1089 H            1 ARL800   0.0000
    52 H27         19.7082    30.8902     7.8234 H            1 ARL800   0.0000
    53 H28         20.0023    27.3662     7.9302 H            1 ARL800   0.0000
    54 H29         21.5106    27.2289     7.3196 H            1 ARL800   0.0000
    55 H30         21.2869    27.8618     8.8082 H            1 ARL800   0.0000
    56 H31         27.1563    23.3358     9.9004 H            1 ARL800   0.0000
@<TRIPOS>BOND
     1    1    2       1
     2    2    3       1
     3    2   22       2
     4    3    4       2
     5    4    5       1
     6    5    6       2
     7    6    7       1
     8    6    8       1
     9    8    9      ar
    10    8   13      ar
    11    9   10      ar
    12   10   11      ar
    13   10   18       1
    14   11   12      ar
    15   12   13      ar
    16   12   14       1
    17   14   15       1
    18   14   16       1
    19   14   17       1
    20   18   19       1
    21   18   20       1
    22   18   21       1
    23   22   23       1
    24   23   24      ar
    25   23   25      ar
    26    1   26       1
    27    1   27       1
    28    1   28       1
    29    3   29       1
    30    4   30       1
    31    5   31       1
    32    7   32       1
    33    7   33       1
    34    7   34       1
    35    9   35       1
    36   11   36       1
    37   13   37       1
    38   15   38       1
    39   15   39       1
    40   15   40       1
    41   16   41       1
    42   16   42       1
    43   16   43       1
    44   17   44       1
    45   17   45       1
    46   17   46       1
    47   19   47       1
    48   19   48       1
    49   19   49       1
    50   20   50       1
    51   20   51       1
    52   20   52       1
    53   21   53       1
    54   21   54       1
    55   21   55       1
    56   22   56       1
@<TRIPOS>SUBSTRUCTURE
     1 ARL800      1 GROUP             4 A     ARL     0 **** ARL A 800
