@<TRIPOS>MOLECULE
4l9i_8PR_2_ligand
   45    48     1     0     0
SMALL
NO_CHARGES


@<TRIPOS>ATOM
     1 FAA        -30.1160    42.0420    12.3320 F            1 8PR601   0.0000
     2 CAB        -28.9400    43.1170    14.0870 C.ar         1 8PR601   0.0000
     3 CAC        -31.2260    42.4200    14.4170 C.ar         1 8PR601   0.0000
     4 CAD        -30.8330    39.7470    19.8050 C.ar         1 8PR601   0.0000
     5 CAE        -28.8990    43.6090    15.3910 C.ar         1 8PR601   0.0000
     6 CAF        -31.1930    42.9220    15.7210 C.ar         1 8PR601   0.0000
     7 CAG        -30.9000    38.4300    20.2620 C.ar         1 8PR601   0.0000
     8 CAH        -28.8210    39.2480    18.5420 C.ar         1 8PR601   0.0000
     9 CAI        -30.2310    46.0130    19.1210 C.3          1 8PR601   0.0000
    10 CAJ        -30.1630    45.5480    17.6690 C.3          1 8PR601   0.0000
    11 CAK        -28.7410    44.0790    19.8130 C.3          1 8PR601   0.0000
    12 CAL        -28.5430    35.7850    19.5040 C.3          1 8PR601   0.0000
    13 CAM        -28.4990    42.1220    18.3500 C.3          1 8PR601   0.0000
    14 NAN        -29.1340    45.4790    19.9090 N.4          1 8PR601   1.0000
    15 OAO        -29.7490    41.4440    18.5160 O.3          1 8PR601   0.0000
    16 OAP        -29.7510    36.2250    20.1390 O.3          1 8PR601   0.0000
    17 OAQ        -28.0920    36.9280    18.7690 O.3          1 8PR601   0.0000
    18 CAR        -30.1010    42.5190    13.5940 C.ar         1 8PR601   0.0000
    19 CAS        -29.7970    40.1540    18.9480 C.ar         1 8PR601   0.0000
    20 CAT        -30.0330    43.5240    16.2220 C.ar         1 8PR601   0.0000
    21 CAU        -29.9160    37.5560    19.8430 C.ar         1 8PR601   0.0000
    22 CAV        -28.9180    37.9640    19.0130 C.ar         1 8PR601   0.0000
    23 CAW        -28.7210    43.6220    18.3630 C.3          1 8PR601   0.0000
    24 CAX        -30.0090    44.0350    17.6300 C.3          1 8PR601   0.0000
    25 HAB        -28.1329    43.1930    13.5015 H            1 8PR601   0.0000
    26 HAC        -32.0589    41.9878    14.0712 H            1 8PR601   0.0000
    27 HAD        -31.5285    40.4066    20.0901 H            1 8PR601   0.0000
    28 HAE        -28.0587    44.0251    15.7386 H            1 8PR601   0.0000
    29 HAF        -32.0047    42.8505    16.3007 H            1 8PR601   0.0000
    30 HAG        -31.6342    38.1299    20.8710 H            1 8PR601   0.0000
    31 HAH        -28.0786    39.5228    17.9310 H            1 8PR601   0.0000
    32 HAI1       -31.0954    45.7060    19.5193 H            1 8PR601   0.0000
    33 HAI2       -30.1898    47.0119    19.1435 H            1 8PR601   0.0000
    34 HAJ1       -29.3791    45.9749    17.2183 H            1 8PR601   0.0000
    35 HAJ2       -31.0036    45.8102    17.1949 H            1 8PR601   0.0000
    36 HAK1       -29.3935    43.5195    20.3241 H            1 8PR601   0.0000
    37 HAK2       -27.8277    43.9673    20.2046 H            1 8PR601   0.0000
    38 HAL1       -28.7254    35.0179    18.8889 H            1 8PR601   0.0000
    39 HAL2       -27.8640    35.5117    20.1854 H            1 8PR601   0.0000
    40 HAM1       -28.0899    41.8547    17.4775 H            1 8PR601   0.0000
    41 HAM2       -27.8837    41.8712    19.0974 H            1 8PR601   0.0000
    42 HAN1       -29.3693    45.6413    20.8673 H            1 8PR601   0.0000
    43 HAW        -27.9457    44.0585    17.9065 H            1 8PR601   0.0000
    44 HAX        -30.7841    43.6331    18.1176 H            1 8PR601   0.0000
    45 HAN2       -28.3257    46.0164    19.6686 H            1 8PR601   0.0000
@<TRIPOS>BOND
     1    1   18       1
     2    2    5      ar
     3    2   18      ar
     4    3    6      ar
     5    3   18      ar
     6    4    7      ar
     7    4   19      ar
     8    5   20      ar
     9    6   20      ar
    10    7   21      ar
    11    8   19      ar
    12    8   22      ar
    13    9   10       1
    14    9   14       1
    15   10   24       1
    16   11   14       1
    17   11   23       1
    18   12   16       1
    19   12   17       1
    20   13   15       1
    21   13   23       1
    22   15   19       1
    23   16   21       1
    24   17   22       1
    25   20   24       1
    26   21   22      ar
    27   23   24       1
    28    2   25       1
    29    3   26       1
    30    4   27       1
    31    5   28       1
    32    6   29       1
    33    7   30       1
    34    8   31       1
    35    9   32       1
    36    9   33       1
    37   10   34       1
    38   10   35       1
    39   11   36       1
    40   11   37       1
    41   12   38       1
    42   12   39       1
    43   13   40       1
    44   13   41       1
    45   14   42       1
    46   23   43       1
    47   24   44       1
    48   14   45       1
@<TRIPOS>SUBSTRUCTURE
     1 8PR601      1 GROUP             4 B     8PR     0 **** 8PR B 601
