@<TRIPOS>MOLECULE
3gh8_FMN_8_ligand
   50    52     1     0     0
SMALL
NO_CHARGES


@<TRIPOS>ATOM
     1 N1         -13.2890   -59.8010    37.9770 N.2          1 FMN301   0.0000
     2 C2         -12.9720   -61.1400    37.7840 C.2          1 FMN301   0.0000
     3 O2         -13.2670   -61.7110    36.7160 O.2          1 FMN301   0.0000
     4 N3         -12.3100   -61.8670    38.7490 N.pl3        1 FMN301   0.0000
     5 C4         -11.9390   -61.2640    39.9500 C.2          1 FMN301   0.0000
     6 O4         -11.0520   -61.7510    40.6730 O.2          1 FMN301   0.0000
     7 C4A        -12.2590   -59.9240    40.1460 C.2          1 FMN301   0.0000
     8 N5         -11.8760   -59.3370    41.3350 N.2          1 FMN301   0.0000
     9 C5A        -12.1490   -57.9940    41.5400 C.ar         1 FMN301   0.0000
    10 C6         -11.7860   -57.3600    42.7390 C.ar         1 FMN301   0.0000
    11 C7         -12.0340   -56.0070    42.9680 C.ar         1 FMN301   0.0000
    12 C7M        -11.2560   -55.2840    44.0320 C.3          1 FMN301   0.0000
    13 C8         -12.6670   -55.2710    41.9620 C.ar         1 FMN301   0.0000
    14 C8M        -12.3330   -53.7830    41.8000 C.3          1 FMN301   0.0000
    15 C9         -13.0610   -55.9210    40.7970 C.ar         1 FMN301   0.0000
    16 C9A        -12.8080   -57.2640    40.5500 C.ar         1 FMN301   0.0000
    17 N10        -13.2230   -57.8670    39.3530 N.pl3        1 FMN301   0.0000
    18 C10        -12.9360   -59.1950    39.1430 C.2          1 FMN301   0.0000
    19 C1'        -14.0630   -57.1010    38.3560 C.3          1 FMN301   0.0000
    20 C2'        -15.4850   -56.7980    38.8510 C.3          1 FMN301   0.0000
    21 O2'        -16.2880   -57.9610    38.8440 O.3          1 FMN301   0.0000
    22 C3'        -16.0750   -55.6650    38.0320 C.3          1 FMN301   0.0000
    23 O3'        -15.2840   -54.5210    38.3250 O.3          1 FMN301   0.0000
    24 C4'        -17.5660   -55.3620    38.3040 C.3          1 FMN301   0.0000
    25 O4'        -18.3670   -56.4760    37.9820 O.3          1 FMN301   0.0000
    26 C5'        -18.0750   -54.1660    37.4930 C.3          1 FMN301   0.0000
    27 O5'        -17.8040   -54.3860    36.1130 O.3          1 FMN301   0.0000
    28 P          -17.1310   -53.2220    35.2800 P.3          1 FMN301   0.0000
    29 O1P        -16.9920   -53.4610    33.7650 O.co2        1 FMN301   0.0000
    30 O2P        -15.6940   -53.1050    35.7510 O.co2        1 FMN301  -1.0000
    31 O3P        -18.0620   -52.0140    35.4830 O.co2        1 FMN301  -1.0000
    32 H1         -12.0949   -62.8302    38.5875 H            1 FMN301   0.0000
    33 H2         -11.3348   -57.8964    43.4522 H            1 FMN301   0.0000
    34 H7M1       -11.5508   -54.3292    44.0697 H            1 FMN301   0.0000
    35 H7M2       -11.4194   -55.7185    44.9177 H            1 FMN301   0.0000
    36 H7M3       -10.2803   -55.3233    43.8163 H            1 FMN301   0.0000
    37 H8M1       -12.8644   -53.4026    41.0431 H            1 FMN301   0.0000
    38 H8M2       -12.5596   -53.2967    42.6439 H            1 FMN301   0.0000
    39 H8M3       -11.3572   -53.6795    41.6073 H            1 FMN301   0.0000
    40 H9         -13.5512   -55.3946    40.1023 H            1 FMN301   0.0000
    41 H1'1       -14.1291   -57.6417    37.5174 H            1 FMN301   0.0000
    42 H1'2       -13.6060   -56.2338    38.1583 H            1 FMN301   0.0000
    43 H2'        -15.4157   -56.4834    39.7977 H            1 FMN301   0.0000
    44 H13        -17.2418   -57.7066    38.6842 H            1 FMN301   0.0000
    45 H3'        -15.9677   -55.8851    37.0624 H            1 FMN301   0.0000
    46 H15        -15.2693   -53.9136    37.5308 H            1 FMN301   0.0000
    47 H4'        -17.6781   -55.1589    39.2767 H            1 FMN301   0.0000
    48 H17        -18.6515   -56.4166    37.0252 H            1 FMN301   0.0000
    49 H5'1       -17.6103   -53.3342    37.7965 H            1 FMN301   0.0000
    50 H5'2       -19.0607   -54.0655    37.6283 H            1 FMN301   0.0000
@<TRIPOS>BOND
     1    1    2       1
     2    1   18       2
     3    2    3       2
     4    2    4       1
     5    4    5       1
     6    5    6       2
     7    5    7       1
     8    7    8       2
     9    7   18       1
    10    8    9       1
    11    9   10      ar
    12    9   16      ar
    13   10   11      ar
    14   11   12       1
    15   11   13      ar
    16   13   14       1
    17   13   15      ar
    18   15   16      ar
    19   16   17       1
    20   17   18       1
    21   17   19       1
    22   19   20       1
    23   20   21       1
    24   20   22       1
    25   22   23       1
    26   22   24       1
    27   24   25       1
    28   24   26       1
    29   26   27       1
    30   27   28       1
    31   28   29      ar
    32   28   30      ar
    33   28   31      ar
    34    4   32       1
    35   10   33       1
    36   12   34       1
    37   12   35       1
    38   12   36       1
    39   14   37       1
    40   14   38       1
    41   14   39       1
    42   15   40       1
    43   19   41       1
    44   19   42       1
    45   20   43       1
    46   21   44       1
    47   22   45       1
    48   23   46       1
    49   24   47       1
    50   25   48       1
    51   26   49       1
    52   26   50       1
@<TRIPOS>SUBSTRUCTURE
     1 FMN301      1 GROUP             4 H     FMN     0 **** FMN H 301
