@<TRIPOS>MOLECULE
4j49_NAI_3_ligand
   71    75     1     0     0
SMALL
NO_CHARGES


@<TRIPOS>ATOM
     1 PA          32.0510   -43.4130   -57.0070 P.3          1 NAI901   0.0000
     2 O1A         33.0930   -43.5570   -58.0920 O.co2        1 NAI901   0.0000
     3 O2A         30.7460   -44.1640   -57.1240 O.co2        1 NAI901  -1.0000
     4 O5B         31.7070   -41.8540   -56.7940 O.3          1 NAI901   0.0000
     5 C5B         32.7350   -40.8670   -56.6980 C.3          1 NAI901   0.0000
     6 C4B         32.2520   -39.6260   -57.4340 C.3          1 NAI901   0.0000
     7 O4B         33.0530   -38.4820   -57.1210 O.3          1 NAI901   0.0000
     8 C3B         32.3180   -39.8240   -58.9410 C.3          1 NAI901   0.0000
     9 O3B         30.9850   -39.7670   -59.4520 O.3          1 NAI901   0.0000
    10 C2B         33.1550   -38.6680   -59.4600 C.3          1 NAI901   0.0000
    11 O2B         32.5820   -38.0830   -60.6320 O.3          1 NAI901   0.0000
    12 C1B         33.1720   -37.6820   -58.3000 C.3          1 NAI901   0.0000
    13 N9A         34.3900   -36.8270   -58.2830 N.pl3        1 NAI901   0.0000
    14 C8A         35.6700   -37.2130   -58.4550 C.2          1 NAI901   0.0000
    15 N7A         36.5150   -36.1510   -58.3770 N.2          1 NAI901   0.0000
    16 C5A         35.7690   -35.0520   -58.1520 C.ar         1 NAI901   0.0000
    17 C6A         36.0130   -33.5960   -57.9630 C.ar         1 NAI901   0.0000
    18 N6A         37.2620   -33.0770   -58.0020 N.pl3        1 NAI901   0.0000
    19 N1A         34.9410   -32.7950   -57.7510 N.ar         1 NAI901   0.0000
    20 C2A         33.6850   -33.2830   -57.7080 C.ar         1 NAI901   0.0000
    21 N3A         33.3910   -34.5890   -57.8690 N.ar         1 NAI901   0.0000
    22 C4A         34.3690   -35.5060   -58.0910 C.ar         1 NAI901   0.0000
    23 O3          32.7610   -43.7900   -55.6120 O.3          1 NAI901   0.0000
    24 PN          31.8890   -44.1420   -54.3080 P.3          1 NAI901   0.0000
    25 O1N         31.5420   -45.6100   -54.3410 O.co2        1 NAI901   0.0000
    26 O2N         30.7820   -43.1260   -54.1890 O.co2        1 NAI901  -1.0000
    27 O5D         32.9430   -43.9090   -53.1080 O.3          1 NAI901   0.0000
    28 C5D         33.4760   -42.6130   -52.8230 C.3          1 NAI901   0.0000
    29 C4D         34.6890   -42.7240   -51.9000 C.3          1 NAI901   0.0000
    30 O4D         34.2960   -43.1680   -50.5960 O.3          1 NAI901   0.0000
    31 C3D         35.7160   -43.7290   -52.4010 C.3          1 NAI901   0.0000
    32 O3D         37.0110   -43.1670   -52.1890 O.3          1 NAI901   0.0000
    33 C2D         35.5470   -44.9380   -51.5040 C.3          1 NAI901   0.0000
    34 O2D         36.7770   -45.6490   -51.3580 O.3          1 NAI901   0.0000
    35 C1D         35.1040   -44.2850   -50.2020 C.3          1 NAI901   0.0000
    36 N1N         34.3620   -45.1550   -49.2820 N.pl3        1 NAI901   0.0000
    37 C2N         34.6780   -45.0610   -47.9840 C.2          1 NAI901   0.0000
    38 C3N         34.0450   -45.8160   -47.0020 C.2          1 NAI901   0.0000
    39 C7N         34.4620   -45.6420   -45.5660 C.2          1 NAI901   0.0000
    40 O7N         33.9770   -46.3510   -44.7030 O.2          1 NAI901   0.0000
    41 N7N         35.3520   -44.6980   -45.2530 N.am         1 NAI901   0.0000
    42 C4N         32.9490   -46.7930   -47.3770 C.3          1 NAI901   0.0000
    43 C5N         32.6890   -46.8020   -48.8180 C.2          1 NAI901   0.0000
    44 C6N         33.3960   -45.9900   -49.7060 C.2          1 NAI901   0.0000
    45 H5B1        33.5753   -41.2079   -57.1195 H            1 NAI901   0.0000
    46 H5B2        32.9087   -40.6480   -55.7379 H            1 NAI901   0.0000
    47 H4B         31.3049   -39.4409   -57.1719 H            1 NAI901   0.0000
    48 H3B         32.7460   -40.6996   -59.1648 H            1 NAI901   0.0000
    49 H5          30.5837   -38.8765   -59.2378 H            1 NAI901   0.0000
    50 H2B         34.0846   -38.9809   -59.6549 H            1 NAI901   0.0000
    51 H7          31.9569   -37.3489   -60.3666 H            1 NAI901   0.0000
    52 H1B         32.3675   -37.0921   -58.3693 H            1 NAI901   0.0000
    53 H8A         35.9597   -38.1561   -58.6184 H            1 NAI901   0.0000
    54 H6A1        37.3997   -32.0951   -57.8721 H            1 NAI901   0.0000
    55 H6A2        38.0474   -33.6754   -58.1607 H            1 NAI901   0.0000
    56 H2A         32.9329   -32.6436   -57.5485 H            1 NAI901   0.0000
    57 H5D1        32.7730   -42.0588   -52.3773 H            1 NAI901   0.0000
    58 H5D2        33.7525   -42.1755   -53.6786 H            1 NAI901   0.0000
    59 H4D         35.1225   -41.8262   -51.8219 H            1 NAI901   0.0000
    60 H3D         35.5673   -43.9598   -53.3626 H            1 NAI901   0.0000
    61 H17         37.6715   -43.9013   -52.0324 H            1 NAI901   0.0000
    62 H2D         34.8315   -45.5410   -51.8568 H            1 NAI901   0.0000
    63 H19         36.6362   -46.4399   -50.7625 H            1 NAI901   0.0000
    64 H1D         35.9141   -43.9395   -49.7284 H            1 NAI901   0.0000
    65 H2N         35.3974   -44.4228   -47.7099 H            1 NAI901   0.0000
    66 H7N1        35.6359   -44.5740   -44.3022 H            1 NAI901   0.0000
    67 H7N2        35.7350   -44.1147   -45.9693 H            1 NAI901   0.0000
    68 H4N1        32.1093   -46.5346   -46.8994 H            1 NAI901   0.0000
    69 H4N2        33.2247   -47.7114   -47.0933 H            1 NAI901   0.0000
    70 H5N         31.9814   -47.4101   -49.1777 H            1 NAI901   0.0000
    71 H6N         33.1793   -46.0298   -50.6814 H            1 NAI901   0.0000
@<TRIPOS>BOND
     1    1    2      ar
     2    1    3      ar
     3    1    4       1
     4    1   23       1
     5    4    5       1
     6    5    6       1
     7    6    7       1
     8    6    8       1
     9    7   12       1
    10    8    9       1
    11    8   10       1
    12   10   11       1
    13   10   12       1
    14   12   13       1
    15   13   14       1
    16   13   22       1
    17   14   15       2
    18   15   16       1
    19   16   17      ar
    20   16   22      ar
    21   17   18       1
    22   17   19      ar
    23   19   20      ar
    24   20   21      ar
    25   21   22      ar
    26   23   24       1
    27   24   25      ar
    28   24   26      ar
    29   24   27       1
    30   27   28       1
    31   28   29       1
    32   29   30       1
    33   29   31       1
    34   30   35       1
    35   31   32       1
    36   31   33       1
    37   33   34       1
    38   33   35       1
    39   35   36       1
    40   36   37       1
    41   36   44       1
    42   37   38       2
    43   38   39       1
    44   38   42       1
    45   39   40       2
    46   39   41      am
    47   42   43       1
    48   43   44       2
    49   44   71       1
    50    5   45       1
    51    5   46       1
    52    6   47       1
    53    8   48       1
    54    9   49       1
    55   10   50       1
    56   11   51       1
    57   12   52       1
    58   14   53       1
    59   18   54       1
    60   18   55       1
    61   20   56       1
    62   43   70       1
    63   28   57       1
    64   28   58       1
    65   29   59       1
    66   31   60       1
    67   32   61       1
    68   33   62       1
    69   34   63       1
    70   35   64       1
    71   37   65       1
    72   41   66       1
    73   41   67       1
    74   42   68       1
    75   42   69       1
@<TRIPOS>SUBSTRUCTURE
     1 NAI901      1 GROUP             4 B     NAI     0 **** NAI B 901
