@<TRIPOS>MOLECULE
2wzv_FMN_2_ligand
   48    50     1     0     0
SMALL
NO_CHARGES


@<TRIPOS>ATOM
     1 N1         -23.1760  -106.3550   -15.0390 N.2          1 FMN801   0.0000
     2 C2         -22.8010  -107.2170   -14.0730 C.2          1 FMN801   0.0000
     3 O2         -22.9560  -108.5440   -14.2730 O.2          1 FMN801   0.0000
     4 N3         -22.2820  -106.7870   -12.8980 N.pl3        1 FMN801   0.0000
     5 C4         -22.1920  -105.4760   -12.6440 C.2          1 FMN801   0.0000
     6 O4         -21.6790  -105.0700   -11.4660 O.2          1 FMN801   0.0000
     7 C4A        -22.5710  -104.5500   -13.6270 C.2          1 FMN801   0.0000
     8 N5         -22.4560  -103.1740   -13.4070 N.2          1 FMN801   0.0000
     9 C5A        -22.5880  -102.3020   -14.4930 C.ar         1 FMN801   0.0000
    10 C6         -22.1940  -100.9700   -14.3520 C.ar         1 FMN801   0.0000
    11 C7         -22.3360  -100.1010   -15.4410 C.ar         1 FMN801   0.0000
    12 C7M        -21.8870   -98.6300   -15.2880 C.3          1 FMN801   0.0000
    13 C8         -22.8080  -100.5870   -16.6780 C.ar         1 FMN801   0.0000
    14 C8M        -22.9510   -99.6540   -17.8870 C.3          1 FMN801   0.0000
    15 C9         -23.2370  -101.9140   -16.8070 C.ar         1 FMN801   0.0000
    16 C9A        -23.0860  -102.7840   -15.7270 C.ar         1 FMN801   0.0000
    17 N10        -23.4450  -104.1400   -15.8550 N.pl3        1 FMN801   0.0000
    18 C10        -23.0720  -105.0290   -14.8420 C.2          1 FMN801   0.0000
    19 C1'        -23.7750  -104.7140   -17.1730 C.3          1 FMN801   0.0000
    20 C2'        -25.2920  -104.7240   -17.4760 C.2          1 FMN801   0.0000
    21 O2'        -26.1420  -105.1800   -16.6710 O.2          1 FMN801   0.0000
    22 C3'        -25.6620  -104.4400   -18.9500 C.3          1 FMN801   0.0000
    23 O3'        -24.8600  -103.4500   -19.6150 O.3          1 FMN801   0.0000
    24 C4'        -27.1600  -104.2770   -19.2420 C.3          1 FMN801   0.0000
    25 O4'        -27.8230  -105.4470   -18.7430 O.3          1 FMN801   0.0000
    26 C5'        -27.3630  -104.2090   -20.7700 C.3          1 FMN801   0.0000
    27 O5'        -26.9440  -105.4560   -21.3790 O.3          1 FMN801   0.0000
    28 P          -25.8180  -105.4600   -22.5380 P.3          1 FMN801   0.0000
    29 O1P        -24.5990  -104.5970   -22.0520 O.co2        1 FMN801   0.0000
    30 O2P        -25.4040  -106.9540   -22.6820 O.co2        1 FMN801  -1.0000
    31 O3P        -26.3910  -104.9510   -23.8020 O.co2        1 FMN801  -1.0000
    32 H1         -21.9657  -107.4500   -12.2195 H            1 FMN801   0.0000
    33 H2         -21.8161  -100.6414   -13.4864 H            1 FMN801   0.0000
    34 H7M1       -22.0510   -98.1406   -16.1445 H            1 FMN801   0.0000
    35 H7M2       -22.4077   -98.1974   -14.5520 H            1 FMN801   0.0000
    36 H7M3       -20.9118   -98.6002   -15.0685 H            1 FMN801   0.0000
    37 H8M1       -23.2971  -100.1724   -18.6690 H            1 FMN801   0.0000
    38 H8M2       -23.5903   -98.9175   -17.6659 H            1 FMN801   0.0000
    39 H8M3       -22.0588   -99.2638   -18.1143 H            1 FMN801   0.0000
    40 H9         -23.6460  -102.2335   -17.6618 H            1 FMN801   0.0000
    41 H1'1       -23.4398  -105.6557   -17.2016 H            1 FMN801   0.0000
    42 H1'2       -23.3144  -104.1747   -17.8780 H            1 FMN801   0.0000
    43 H3'        -25.4227  -105.2898   -19.4197 H            1 FMN801   0.0000
    44 H13        -24.8113  -103.6613   -20.5912 H            1 FMN801   0.0000
    45 H4'        -27.5179  -103.4537   -18.8015 H            1 FMN801   0.0000
    46 H15        -27.6643  -105.5258   -17.7588 H            1 FMN801   0.0000
    47 H5'1       -26.8186  -103.4580   -21.1438 H            1 FMN801   0.0000
    48 H5'2       -28.3301  -104.0511   -20.9694 H            1 FMN801   0.0000
@<TRIPOS>BOND
     1    1    2       1
     2    1   18       2
     3    2    3       2
     4    2    4       1
     5    4    5       1
     6    5    6       2
     7    5    7       1
     8    7    8       2
     9    7   18       1
    10    8    9       1
    11    9   10      ar
    12    9   16      ar
    13   10   11      ar
    14   11   12       1
    15   11   13      ar
    16   13   14       1
    17   13   15      ar
    18   15   16      ar
    19   16   17       1
    20   17   18       1
    21   17   19       1
    22   19   20       1
    23   20   21       2
    24   20   22       1
    25   22   23       1
    26   22   24       1
    27   24   25       1
    28   24   26       1
    29   26   27       1
    30   27   28       1
    31   28   29      ar
    32   28   30      ar
    33   28   31      ar
    34    4   32       1
    35   10   33       1
    36   12   34       1
    37   12   35       1
    38   12   36       1
    39   14   37       1
    40   14   38       1
    41   14   39       1
    42   15   40       1
    43   19   41       1
    44   19   42       1
    45   22   43       1
    46   23   44       1
    47   24   45       1
    48   25   46       1
    49   26   47       1
    50   26   48       1
@<TRIPOS>SUBSTRUCTURE
     1 FMN801      1 GROUP             4 B     FMN     0 **** FMN B 801
