@<TRIPOS>MOLECULE
4b5n_FMN_1_ligand
   50    52     1     0     0
SMALL
NO_CHARGES


@<TRIPOS>ATOM
     1 N1          22.3710     1.7280    17.6980 N.2          1 FMN400   0.0000
     2 C2          21.3340     2.5600    17.3830 C.2          1 FMN400   0.0000
     3 O2          20.3590     2.1490    16.7320 O.2          1 FMN400   0.0000
     4 N3          21.4000     3.8890    17.7370 N.pl3        1 FMN400   0.0000
     5 C4          22.3860     4.3990    18.5340 C.2          1 FMN400   0.0000
     6 O4          22.3950     5.6430    18.7700 O.2          1 FMN400   0.0000
     7 C4A         23.3950     3.5230    18.9500 C.2          1 FMN400   0.0000
     8 N5          24.3960     3.9500    19.7800 N.2          1 FMN400   0.0000
     9 C5A         25.4850     3.1240    19.9850 C.ar         1 FMN400   0.0000
    10 C6          26.5940     3.6150    20.6730 C.ar         1 FMN400   0.0000
    11 C7          27.7600     2.8720    20.8180 C.ar         1 FMN400   0.0000
    12 C7M         28.9310     3.4430    21.5690 C.3          1 FMN400   0.0000
    13 C8          27.7940     1.5680    20.3010 C.ar         1 FMN400   0.0000
    14 C8M         29.0200     0.7010    20.4500 C.3          1 FMN400   0.0000
    15 C9          26.7090     1.0720    19.5800 C.ar         1 FMN400   0.0000
    16 C9A         25.5420     1.8450    19.4140 C.ar         1 FMN400   0.0000
    17 N10         24.4510     1.3810    18.6730 N.pl3        1 FMN400   0.0000
    18 C10         23.3880     2.2170    18.4470 C.2          1 FMN400   0.0000
    19 C1'         24.5420     0.0760    17.9750 C.3          1 FMN400   0.0000
    20 C2'         25.3380     0.1980    16.6730 C.3          1 FMN400   0.0000
    21 O2'         24.6030     0.9090    15.6960 O.3          1 FMN400   0.0000
    22 C3'         25.6850    -1.1690    16.0810 C.3          1 FMN400   0.0000
    23 O3'         24.4800    -1.8900    15.8310 O.3          1 FMN400   0.0000
    24 C4'         26.6330    -1.9930    16.9550 C.3          1 FMN400   0.0000
    25 O4'         27.7020    -1.1890    17.4210 O.3          1 FMN400   0.0000
    26 C5'         27.1320    -3.2330    16.1990 C.3          1 FMN400   0.0000
    27 O5'         27.8850    -2.9120    15.0450 O.3          1 FMN400   0.0000
    28 P           29.4930    -2.9740    15.0810 P.3          1 FMN400   0.0000
    29 O1P         29.9560    -1.9640    16.1040 O.co2        1 FMN400   0.0000
    30 O2P         29.8860    -4.3770    15.4890 O.co2        1 FMN400  -1.0000
    31 O3P         29.9340    -2.6320    13.6840 O.co2        1 FMN400  -1.0000
    32 H1          20.6941     4.5094    17.3952 H            1 FMN400   0.0000
    33 H2          26.5492     4.5298    21.0745 H            1 FMN400   0.0000
    34 H7M1        29.6786     2.7789    21.5757 H            1 FMN400   0.0000
    35 H7M2        29.2360     4.2837    21.1216 H            1 FMN400   0.0000
    36 H7M3        28.6571     3.6461    22.5091 H            1 FMN400   0.0000
    37 H8M1        28.8545    -0.1869    20.0207 H            1 FMN400   0.0000
    38 H8M2        29.7985     1.1456    20.0069 H            1 FMN400   0.0000
    39 H8M3        29.2195     0.5698    21.4211 H            1 FMN400   0.0000
    40 H9          26.7590     0.1584    19.1764 H            1 FMN400   0.0000
    41 H1'1        23.6191    -0.2459    17.7640 H            1 FMN400   0.0000
    42 H1'2        24.9961    -0.5833    18.5742 H            1 FMN400   0.0000
    43 H2'         26.1868     0.6925    16.8600 H            1 FMN400   0.0000
    44 H13         24.8058     1.8853    15.7714 H            1 FMN400   0.0000
    45 H3'         26.1365    -1.0152    15.2021 H            1 FMN400   0.0000
    46 H15         24.6534    -2.8707    15.9217 H            1 FMN400   0.0000
    47 H4'         26.1176    -2.3079    17.7520 H            1 FMN400   0.0000
    48 H17         28.5694    -1.5687    17.0995 H            1 FMN400   0.0000
    49 H5'1        26.3401    -3.7769    15.9215 H            1 FMN400   0.0000
    50 H5'2        27.7070    -3.7716    16.8149 H            1 FMN400   0.0000
@<TRIPOS>BOND
     1    1    2       1
     2    1   18       2
     3    2    3       2
     4    2    4       1
     5    4    5       1
     6    5    6       2
     7    5    7       1
     8    7    8       2
     9    7   18       1
    10    8    9       1
    11    9   10      ar
    12    9   16      ar
    13   10   11      ar
    14   11   12       1
    15   11   13      ar
    16   13   14       1
    17   13   15      ar
    18   15   16      ar
    19   16   17       1
    20   17   18       1
    21   17   19       1
    22   19   20       1
    23   20   21       1
    24   20   22       1
    25   22   23       1
    26   22   24       1
    27   24   25       1
    28   24   26       1
    29   26   27       1
    30   27   28       1
    31   28   29      ar
    32   28   30      ar
    33   28   31      ar
    34    4   32       1
    35   10   33       1
    36   12   34       1
    37   12   35       1
    38   12   36       1
    39   14   37       1
    40   14   38       1
    41   14   39       1
    42   15   40       1
    43   19   41       1
    44   19   42       1
    45   20   43       1
    46   21   44       1
    47   22   45       1
    48   23   46       1
    49   24   47       1
    50   25   48       1
    51   26   49       1
    52   26   50       1
@<TRIPOS>SUBSTRUCTURE
     1 FMN400      1 GROUP             4 A     FMN     0 **** FMN A 400
