@<TRIPOS>MOLECULE
2ejv_NAD_2_ligand
   70    74     1     0     0
SMALL
NO_CHARGES


@<TRIPOS>ATOM
     1 PA          39.5680    -5.6110    60.2090 P.3          1 NAD2350   0.0000
     2 O1A         38.7960    -6.3330    61.2330 O.co2        1 NAD2350   0.0000
     3 O2A         39.2770    -5.8480    58.7820 O.co2        1 NAD2350  -1.0000
     4 O5B         39.4530    -4.0130    60.4620 O.3          1 NAD2350   0.0000
     5 C5B         39.7630    -3.0510    59.4640 C.3          1 NAD2350   0.0000
     6 C4B         38.9190    -1.8700    59.9230 C.3          1 NAD2350   0.0000
     7 O4B         39.1290    -0.7890    59.0130 O.3          1 NAD2350   0.0000
     8 C3B         37.4140    -2.1380    59.8970 C.3          1 NAD2350   0.0000
     9 O3B         36.8710    -2.2020    61.2300 O.3          1 NAD2350   0.0000
    10 C2B         36.8760    -1.0030    59.0660 C.3          1 NAD2350   0.0000
    11 O2B         35.6200    -0.5090    59.5310 O.3          1 NAD2350   0.0000
    12 C1B         37.9670     0.0200    59.1380 C.3          1 NAD2350   0.0000
    13 N9A         37.9190     1.0850    58.0820 N.pl3        1 NAD2350   0.0000
    14 C8A         37.4600     1.0060    56.8180 C.2          1 NAD2350   0.0000
    15 N7A         37.5660     2.1900    56.1720 N.2          1 NAD2350   0.0000
    16 C5A         38.0990     2.9810    57.0740 C.ar         1 NAD2350   0.0000
    17 C6A         38.3940     4.3430    56.8510 C.ar         1 NAD2350   0.0000
    18 N6A         38.1420     4.9210    55.6830 N.pl3        1 NAD2350   0.0000
    19 N1A         38.9460     5.0000    57.9100 N.ar         1 NAD2350   0.0000
    20 C2A         39.1890     4.3920    59.0830 C.ar         1 NAD2350   0.0000
    21 N3A         38.9010     3.0800    59.2960 N.ar         1 NAD2350   0.0000
    22 C4A         38.3480     2.3540    58.2870 C.ar         1 NAD2350   0.0000
    23 O3          41.1290    -5.8950    60.4600 O.3          1 NAD2350   0.0000
    24 PN          42.0430    -6.3750    61.6940 P.3          1 NAD2350   0.0000
    25 O1N         41.7440    -7.7790    61.9970 O.co2        1 NAD2350   0.0000
    26 O2N         41.8760    -5.3650    62.7920 O.co2        1 NAD2350  -1.0000
    27 O5D         43.5150    -6.2880    61.0420 O.3          1 NAD2350   0.0000
    28 C5D         44.0180    -4.9800    60.6410 C.3          1 NAD2350   0.0000
    29 C4D         44.6700    -4.9960    59.2430 C.3          1 NAD2350   0.0000
    30 O4D         45.9550    -5.6090    59.3200 O.3          1 NAD2350   0.0000
    31 C3D         43.9180    -5.7840    58.1800 C.3          1 NAD2350   0.0000
    32 O3D         43.9810    -5.0630    56.9370 O.3          1 NAD2350   0.0000
    33 C2D         44.6650    -7.1100    58.0920 C.3          1 NAD2350   0.0000
    34 O2D         44.5520    -7.7420    56.7950 O.3          1 NAD2350   0.0000
    35 C1D         46.0820    -6.7010    58.4040 C.3          1 NAD2350   0.0000
    36 N1N         46.9700    -7.6870    59.0570 N.ar         1 NAD2350   1.0000
    37 C2N         48.3240    -7.5770    58.7010 C.ar         1 NAD2350   0.0000
    38 C3N         49.2720    -8.4300    59.2510 C.ar         1 NAD2350   0.0000
    39 C7N         50.7470    -8.2870    58.8490 C.2          1 NAD2350   0.0000
    40 O7N         51.4970    -9.2230    59.1190 O.2          1 NAD2350   0.0000
    41 N7N         51.1220    -7.1510    58.2420 N.am         1 NAD2350   0.0000
    42 C4N         48.8520    -9.4270    60.1920 C.ar         1 NAD2350   0.0000
    43 C5N         47.4850    -9.5540    60.5640 C.ar         1 NAD2350   0.0000
    44 C6N         46.5230    -8.6770    59.9950 C.ar         1 NAD2350   0.0000
    45 H5B1        39.4906    -3.3651    58.5545 H            1 NAD2350   0.0000
    46 H5B2        40.7374    -2.8264    59.4611 H            1 NAD2350   0.0000
    47 H4B         39.1966    -1.5947    60.8434 H            1 NAD2350   0.0000
    48 H3B         37.2402    -3.0034    59.4271 H            1 NAD2350   0.0000
    49 H5          37.0314    -1.3326    61.6974 H            1 NAD2350   0.0000
    50 H2B         36.7768    -1.3092    58.1192 H            1 NAD2350   0.0000
    51 H7          35.7747     0.2241    60.1933 H            1 NAD2350   0.0000
    52 H1B         37.9586     0.4493    60.0411 H            1 NAD2350   0.0000
    53 H8A         37.0866     0.1741    56.4074 H            1 NAD2350   0.0000
    54 H6A1        38.3589     5.8876    55.5463 H            1 NAD2350   0.0000
    55 H6A2        37.7352     4.3899    54.9397 H            1 NAD2350   0.0000
    56 H2A         39.5962     4.9231    59.8261 H            1 NAD2350   0.0000
    57 H5D1        44.6998    -4.6810    61.3086 H            1 NAD2350   0.0000
    58 H5D2        43.2554    -4.3333    60.6310 H            1 NAD2350   0.0000
    59 H4D         44.7806    -4.0534    58.9279 H            1 NAD2350   0.0000
    60 H3D         42.9680    -5.9312    58.4553 H            1 NAD2350   0.0000
    61 H17         43.5608    -4.1629    57.0521 H            1 NAD2350   0.0000
    62 H2D         44.3307    -7.7322    58.7999 H            1 NAD2350   0.0000
    63 H19         45.0599    -8.6034    56.7985 H            1 NAD2350   0.0000
    64 H1D         46.5187    -6.3741    57.5659 H            1 NAD2350   0.0000
    65 H2N         48.6083    -6.8777    58.0451 H            1 NAD2350   0.0000
    66 H7N1        52.0745    -7.0225    57.9658 H            1 NAD2350   0.0000
    67 H7N2        50.4491    -6.4326    58.0657 H            1 NAD2350   0.0000
    68 H4N         49.5306   -10.0425    60.5929 H            1 NAD2350   0.0000
    69 H5N         47.2036   -10.2543    61.2201 H            1 NAD2350   0.0000
    70 H6N         45.5567    -8.7479    60.2424 H            1 NAD2350   0.0000
@<TRIPOS>BOND
     1    1    2      ar
     2    1    3      ar
     3    1    4       1
     4    1   23       1
     5    4    5       1
     6    5    6       1
     7    6    7       1
     8    6    8       1
     9    7   12       1
    10    8    9       1
    11    8   10       1
    12   10   11       1
    13   10   12       1
    14   12   13       1
    15   13   14       1
    16   13   22       1
    17   14   15       2
    18   15   16       1
    19   16   17      ar
    20   16   22      ar
    21   17   18       1
    22   17   19      ar
    23   19   20      ar
    24   20   21      ar
    25   21   22      ar
    26   23   24       1
    27   24   25      ar
    28   24   26      ar
    29   24   27       1
    30   27   28       1
    31   28   29       1
    32   29   30       1
    33   29   31       1
    34   30   35       1
    35   31   32       1
    36   31   33       1
    37   33   34       1
    38   33   35       1
    39   35   36       1
    40   36   37      ar
    41   36   44      ar
    42   37   38      ar
    43   38   39       1
    44   38   42      ar
    45   39   40       2
    46   39   41      am
    47   42   43      ar
    48   43   44      ar
    49   44   70       1
    50    5   45       1
    51    5   46       1
    52    6   47       1
    53    8   48       1
    54    9   49       1
    55   10   50       1
    56   11   51       1
    57   12   52       1
    58   14   53       1
    59   18   54       1
    60   18   55       1
    61   20   56       1
    62   43   69       1
    63   28   57       1
    64   28   58       1
    65   29   59       1
    66   31   60       1
    67   32   61       1
    68   33   62       1
    69   34   63       1
    70   35   64       1
    71   37   65       1
    72   41   66       1
    73   41   67       1
    74   42   68       1
@<TRIPOS>SUBSTRUCTURE
     1 NAD2350     1 GROUP             4 B     NAD     0 **** NAD B2350
