@<TRIPOS>MOLECULE
3ehe_NAD_1_ligand
   70    74     1     0     0
SMALL
NO_CHARGES


@<TRIPOS>ATOM
     1 PA          37.7280    16.0650    26.6520 P.3          1 NAD900   0.0000
     2 O1A         36.3230    16.6170    26.6410 O.co2        1 NAD900   0.0000
     3 O2A         38.8030    17.0080    26.4390 O.co2        1 NAD900  -1.0000
     4 O5B         37.8580    15.2570    28.0430 O.3          1 NAD900   0.0000
     5 C5B         39.1640    15.0010    28.6500 C.3          1 NAD900   0.0000
     6 C4B         39.1690    15.6140    30.0600 C.3          1 NAD900   0.0000
     7 O4B         40.4730    15.3150    30.6280 O.3          1 NAD900   0.0000
     8 C3B         39.0450    17.1580    30.0970 C.3          1 NAD900   0.0000
     9 O3B         37.8890    17.5960    30.8380 O.3          1 NAD900   0.0000
    10 C2B         40.3540    17.6130    30.6960 C.3          1 NAD900   0.0000
    11 O2B         40.1720    18.7610    31.5400 O.3          1 NAD900   0.0000
    12 C1B         40.8800    16.3700    31.4490 C.3          1 NAD900   0.0000
    13 N9A         42.3720    16.3440    31.5220 N.pl3        1 NAD900   0.0000
    14 C8A         43.2830    16.4180    30.5240 C.2          1 NAD900   0.0000
    15 N7A         44.5720    16.3710    30.9240 N.2          1 NAD900   0.0000
    16 C5A         44.4500    16.2560    32.2920 C.ar         1 NAD900   0.0000
    17 C6A         45.4320    16.1570    33.3440 C.ar         1 NAD900   0.0000
    18 N6A         46.7380    16.1650    33.1070 N.pl3        1 NAD900   0.0000
    19 N1A         44.9490    16.0540    34.6140 N.ar         1 NAD900   0.0000
    20 C2A         43.5930    16.0490    34.8560 C.ar         1 NAD900   0.0000
    21 N3A         42.6130    16.1360    33.9450 N.ar         1 NAD900   0.0000
    22 C4A         43.1070    16.2380    32.6860 C.ar         1 NAD900   0.0000
    23 O3          37.8180    14.9510    25.5510 O.3          1 NAD900   0.0000
    24 PN          36.9160    13.6650    25.2450 P.3          1 NAD900   0.0000
    25 O1N         36.4040    13.8800    23.8780 O.co2        1 NAD900   0.0000
    26 O2N         35.8390    13.5330    26.2160 O.co2        1 NAD900  -1.0000
    27 O5D         37.8690    12.3840    25.1810 O.3          1 NAD900   0.0000
    28 C5D         37.9840    11.5770    26.3750 C.3          1 NAD900   0.0000
    29 C4D         38.9170    10.3920    26.0810 C.3          1 NAD900   0.0000
    30 O4D         38.4280     9.6840    24.8950 O.3          1 NAD900   0.0000
    31 C3D         40.3720    10.7500    25.8100 C.3          1 NAD900   0.0000
    32 O3D         41.2720     9.8610    26.4960 O.3          1 NAD900   0.0000
    33 C2D         40.4370    10.6680    24.2730 C.3          1 NAD900   0.0000
    34 O2D         41.7920    10.4110    23.8140 O.3          1 NAD900   0.0000
    35 C1D         39.4200     9.5800    23.9490 C.3          1 NAD900   0.0000
    36 N1N         38.7880     9.6370    22.5860 N.ar         1 NAD900   1.0000
    37 C2N         37.7950    10.6150    22.3420 C.ar         1 NAD900   0.0000
    38 C3N         37.2160    10.6280    21.0510 C.ar         1 NAD900   0.0000
    39 C7N         36.1410    11.6180    20.6450 C.2          1 NAD900   0.0000
    40 O7N         35.6730    11.5800    19.5040 O.2          1 NAD900   0.0000
    41 N7N         35.7090    12.5190    21.5280 N.am         1 NAD900   0.0000
    42 C4N         37.6280     9.6840    20.0240 C.ar         1 NAD900   0.0000
    43 C5N         38.6340     8.7620    20.4040 C.ar         1 NAD900   0.0000
    44 C6N         39.2440     8.6820    21.6380 C.ar         1 NAD900   0.0000
    45 H5B1        39.8827    15.4212    28.0960 H            1 NAD900   0.0000
    46 H5B2        39.3221    14.0154    28.7092 H            1 NAD900   0.0000
    47 H4B         38.4494    15.1990    30.6167 H            1 NAD900   0.0000
    48 H3B         38.9796    17.5013    29.1601 H            1 NAD900   0.0000
    49 H5          37.2902    18.1269    30.2383 H            1 NAD900   0.0000
    50 H2B         40.9896    17.8442    29.9594 H            1 NAD900   0.0000
    51 H7          39.5448    18.5315    32.2843 H            1 NAD900   0.0000
    52 H1B         40.4718    16.2986    32.3591 H            1 NAD900   0.0000
    53 H8A         43.0213    16.5012    29.5624 H            1 NAD900   0.0000
    54 H6A1        47.3845    16.0941    33.8666 H            1 NAD900   0.0000
    55 H6A2        47.0754    16.2419    32.1688 H            1 NAD900   0.0000
    56 H2A         43.3095    15.9724    35.8119 H            1 NAD900   0.0000
    57 H5D1        37.0815    11.2371    26.6396 H            1 NAD900   0.0000
    58 H5D2        38.3637    12.1279    27.1182 H            1 NAD900   0.0000
    59 H4D         38.8856     9.7645    26.8590 H            1 NAD900   0.0000
    60 H3D         40.5445    11.6907    26.1020 H            1 NAD900   0.0000
    61 H17         40.8444     8.9620    26.5912 H            1 NAD900   0.0000
    62 H2D         40.1211    11.5347    23.8869 H            1 NAD900   0.0000
    63 H19         42.3929    11.1500    24.1186 H            1 NAD900   0.0000
    64 H1D         39.8647     8.6905    24.0541 H            1 NAD900   0.0000
    65 H2N         37.5158    11.2658    23.0481 H            1 NAD900   0.0000
    66 H7N1        35.0005    13.1748    21.2673 H            1 NAD900   0.0000
    67 H7N2        36.0935    12.5389    22.4509 H            1 NAD900   0.0000
    68 H4N         37.2267     9.6858    19.1081 H            1 NAD900   0.0000
    69 H5N         38.9305     8.1057    19.7102 H            1 NAD900   0.0000
    70 H6N         39.9504     8.0063    21.8487 H            1 NAD900   0.0000
@<TRIPOS>BOND
     1    1    2      ar
     2    1    3      ar
     3    1    4       1
     4    1   23       1
     5    4    5       1
     6    5    6       1
     7    6    7       1
     8    6    8       1
     9    7   12       1
    10    8    9       1
    11    8   10       1
    12   10   11       1
    13   10   12       1
    14   12   13       1
    15   13   14       1
    16   13   22       1
    17   14   15       2
    18   15   16       1
    19   16   17      ar
    20   16   22      ar
    21   17   18       1
    22   17   19      ar
    23   19   20      ar
    24   20   21      ar
    25   21   22      ar
    26   23   24       1
    27   24   25      ar
    28   24   26      ar
    29   24   27       1
    30   27   28       1
    31   28   29       1
    32   29   30       1
    33   29   31       1
    34   30   35       1
    35   31   32       1
    36   31   33       1
    37   33   34       1
    38   33   35       1
    39   35   36       1
    40   36   37      ar
    41   36   44      ar
    42   37   38      ar
    43   38   39       1
    44   38   42      ar
    45   39   40       2
    46   39   41      am
    47   42   43      ar
    48   43   44      ar
    49   44   70       1
    50    5   45       1
    51    5   46       1
    52    6   47       1
    53    8   48       1
    54    9   49       1
    55   10   50       1
    56   11   51       1
    57   12   52       1
    58   14   53       1
    59   18   54       1
    60   18   55       1
    61   20   56       1
    62   43   69       1
    63   28   57       1
    64   28   58       1
    65   29   59       1
    66   31   60       1
    67   32   61       1
    68   33   62       1
    69   34   63       1
    70   35   64       1
    71   37   65       1
    72   41   66       1
    73   41   67       1
    74   42   68       1
@<TRIPOS>SUBSTRUCTURE
     1 NAD900      1 GROUP             4 A     NAD     0 **** NAD A 900
