@<TRIPOS>MOLECULE
5c8w_PCG_5_ligand
   35    38     1     0     0
SMALL
NO_CHARGES


@<TRIPOS>ATOM
     1 PA          25.4920    10.1920   -37.6510 P.3          1 PCG302   0.0000
     2 O1A         26.6530    10.8400   -37.0460 O.2          1 PCG302   0.0000
     3 O2A         25.4480     8.8160   -37.7070 O.3          1 PCG302   0.0000
     4 O5'         25.2330    10.7380   -39.0910 O.3          1 PCG302   0.0000
     5 C5'         24.0020    10.5570   -39.7000 C.3          1 PCG302   0.0000
     6 C4'         22.9340    11.0950   -38.7810 C.3          1 PCG302   0.0000
     7 O4'         21.6300    10.9610   -39.2020 O.3          1 PCG302   0.0000
     8 C3'         22.9580    10.3470   -37.5130 C.3          1 PCG302   0.0000
     9 O3'         24.2020    10.6150   -36.9260 O.3          1 PCG302   0.0000
    10 C2'         21.7210    10.9590   -36.8840 C.3          1 PCG302   0.0000
    11 O2'         22.0940    12.1670   -36.3030 O.3          1 PCG302   0.0000
    12 C1'         20.8440    11.2290   -38.0870 C.3          1 PCG302   0.0000
    13 N9          19.6590    10.3790   -38.1480 N.pl3        1 PCG302   0.0000
    14 C8          18.4330    10.8480   -38.1830 C.2          1 PCG302   0.0000
    15 N7          17.5460     9.8860   -38.2510 N.2          1 PCG302   0.0000
    16 C5          18.2070     8.7610   -38.2520 C.2          1 PCG302   0.0000
    17 C6          17.8410     7.3680   -38.3070 C.2          1 PCG302   0.0000
    18 O6          16.6560     7.0910   -38.3750 O.2          1 PCG302   0.0000
    19 N1          18.8070     6.4560   -38.2960 N.pl3        1 PCG302   0.0000
    20 C2          20.0970     6.8020   -38.2290 C.2          1 PCG302   0.0000
    21 N2          21.0130     5.8530   -38.2130 N.pl3        1 PCG302   0.0000
    22 N3          20.4860     8.0790   -38.1830 N.2          1 PCG302   0.0000
    23 C4          19.6200     9.0760   -38.1920 C.2          1 PCG302   0.0000
    24 H5'1        23.8466     9.5830   -39.8651 H            1 PCG302   0.0000
    25 H5'2        23.9794    11.0502   -40.5696 H            1 PCG302   0.0000
    26 H4'         23.1194    12.0598   -38.5945 H            1 PCG302   0.0000
    27 H3'         22.8362     9.3669   -37.6696 H            1 PCG302   0.0000
    28 H2'         21.2851    10.3423   -36.2285 H            1 PCG302   0.0000
    29 H6          22.3730    12.0092   -35.3558 H            1 PCG302   0.0000
    30 H1'         20.5687    12.1903   -38.0932 H            1 PCG302   0.0000
    31 H8          18.2041    11.8212   -38.1605 H            1 PCG302   0.0000
    32 H9          18.5635     5.4870   -38.3389 H            1 PCG302   0.0000
    33 H10         21.9822     6.0943   -38.1632 H            1 PCG302   0.0000
    34 H11         20.7383     4.8922   -38.2507 H            1 PCG302   0.0000
    35 H2A         25.9518     8.4346   -36.9319 H            1 PCG302   0.0000
@<TRIPOS>BOND
     1    1    2       2
     2    1    3       1
     3    1    4       1
     4    1    9       1
     5    4    5       1
     6    5    6       1
     7    6    7       1
     8    6    8       1
     9    7   12       1
    10    8    9       1
    11    8   10       1
    12   10   11       1
    13   10   12       1
    14   12   13       1
    15   13   14       1
    16   13   23       1
    17   14   15       2
    18   15   16       1
    19   16   17       1
    20   16   23       2
    21   17   18       2
    22   17   19       1
    23   19   20       1
    24   20   21       1
    25   20   22       2
    26   22   23       1
    27   21   34       1
    28    5   24       1
    29    5   25       1
    30    6   26       1
    31    8   27       1
    32   10   28       1
    33   11   29       1
    34   12   30       1
    35   14   31       1
    36   19   32       1
    37   21   33       1
    38    3   35       1
@<TRIPOS>SUBSTRUCTURE
     1 PCG302      1 GROUP             4 E     PCG     0 **** PCG E 302
