@<TRIPOS>MOLECULE
3icz_PB6_2_ligand
   34    34     1     0     0
SMALL
NO_CHARGES


@<TRIPOS>ATOM
     1 C7           9.4900    18.3870   151.5780 C.3          1 PB6363   0.0000
     2 C8           8.6520    18.3720   150.2750 C.3          1 PB6363   0.0000
     3 P9           6.9790    17.8740   150.7970 P.3          1 PB6363   0.0000
     4 O10          7.0900    16.5180   151.4310 O.co2        1 PB6363   0.0000
     5 O11          6.1450    17.7760   149.5330 O.co2        1 PB6363  -1.0000
     6 N12         10.9600    18.6360   151.3560 N.ar         1 PB6363   1.0000
     7 O12          6.5170    18.9510   151.6920 O.co2        1 PB6363  -1.0000
     8 C13         11.6750    18.2740   150.2400 C.ar         1 PB6363   0.0000
     9 C14         13.0420    18.6180   150.1680 C.ar         1 PB6363   0.0000
    10 P14          8.6500    19.9960   149.4300 P.3          1 PB6363   0.0000
    11 C15         13.6680    19.3250   151.2360 C.ar         1 PB6363   0.0000
    12 O15          8.3260    21.0000   150.5130 O.co2        1 PB6363   0.0000
    13 C16         12.8920    19.6720   152.3700 C.ar         1 PB6363   0.0000
    14 O16         10.0440    20.3360   148.9800 O.co2        1 PB6363  -1.0000
    15 C17         11.5490    19.3230   152.3410 C.ar         1 PB6363   0.0000
    16 O17          7.7390    19.8270   148.2130 O.co2        1 PB6363  -1.0000
    17 C18         13.3180    20.4560   153.5840 C.2          1 PB6363   0.0000
    18 C19         14.5640    20.8910   153.7190 C.2          1 PB6363   0.0000
    19 C20         15.1230    21.6840   154.8970 C.3          1 PB6363   0.0000
    20 C21         14.0860    22.0170   155.9480 C.3          1 PB6363   0.0000
    21 H1           9.3854    17.5010   152.0298 H            1 PB6363   0.0000
    22 H2           9.1347    19.1083   152.1725 H            1 PB6363   0.0000
    23 H3           9.0218    17.6800   149.6550 H            1 PB6363   0.0000
    24 H4          11.2351    17.7761   149.4927 H            1 PB6363   0.0000
    25 H5          13.5756    18.3638   149.3614 H            1 PB6363   0.0000
    26 H6          14.6359    19.5713   151.1860 H            1 PB6363   0.0000
    27 H7          10.9800    19.6059   153.1131 H            1 PB6363   0.0000
    28 H8          12.6493    20.6521   154.3012 H            1 PB6363   0.0000
    29 H9          15.1990    20.6785   152.9763 H            1 PB6363   0.0000
    30 H10         15.5068    22.5393   154.5490 H            1 PB6363   0.0000
    31 H11         15.8470    21.1443   155.3267 H            1 PB6363   0.0000
    32 H12         14.5157    22.5343   156.6881 H            1 PB6363   0.0000
    33 H13         13.3585    22.5659   155.5363 H            1 PB6363   0.0000
    34 H14         13.6987    21.1708   156.3140 H            1 PB6363   0.0000
@<TRIPOS>BOND
     1    1    2       1
     2    1    6       1
     3    2    3       1
     4    2   10       1
     5    3    4      ar
     6    3    5      ar
     7    3    7      ar
     8    6    8      ar
     9    6   15      ar
    10    8    9      ar
    11    9   11      ar
    12   10   12      ar
    13   10   14      ar
    14   10   16      ar
    15   11   13      ar
    16   13   15      ar
    17   13   17       1
    18   17   18       2
    19   18   19       1
    20   19   20       1
    21    1   21       1
    22    1   22       1
    23    2   23       1
    24   20   34       1
    25   20   33       1
    26    8   24       1
    27    9   25       1
    28   11   26       1
    29   20   32       1
    30   19   31       1
    31   15   27       1
    32   17   28       1
    33   18   29       1
    34   19   30       1
@<TRIPOS>SUBSTRUCTURE
     1 PB6363      1 GROUP             4 A     PB6     0 **** PB6 A 363
