@<TRIPOS>MOLECULE
1bxk_NAD_1_ligand
   70    74     1     0     0
SMALL
NO_CHARGES


@<TRIPOS>ATOM
     1 PA          15.2250    21.8200    16.8810 P.3          1 NAD380   0.0000
     2 O1A         15.9810    21.5210    18.0710 O.co2        1 NAD380   0.0000
     3 O2A         14.0200    21.0610    16.6820 O.co2        1 NAD380  -1.0000
     4 O5B         16.0400    21.7900    15.5300 O.3          1 NAD380   0.0000
     5 C5B         17.4060    22.2320    15.5460 C.3          1 NAD380   0.0000
     6 C4B         17.8540    21.9930    14.1600 C.3          1 NAD380   0.0000
     7 O4B         19.1540    22.5850    13.9770 O.3          1 NAD380   0.0000
     8 C3B         18.1410    20.4780    13.9460 C.3          1 NAD380   0.0000
     9 O3B         17.5640    20.0770    12.7090 O.3          1 NAD380   0.0000
    10 C2B         19.6780    20.3890    14.0420 C.3          1 NAD380   0.0000
    11 O2B         20.1660    19.3560    13.1890 O.3          1 NAD380   0.0000
    12 C1B         20.0840    21.7460    13.4070 C.3          1 NAD380   0.0000
    13 N9A         21.3480    22.1630    13.9110 N.pl3        1 NAD380   0.0000
    14 C8A         21.7170    22.1660    15.2300 C.2          1 NAD380   0.0000
    15 N7A         22.9890    22.5180    15.3910 N.2          1 NAD380   0.0000
    16 C5A         23.4050    22.8810    14.0980 C.ar         1 NAD380   0.0000
    17 C6A         24.6690    23.4030    13.6280 C.ar         1 NAD380   0.0000
    18 N6A         25.7920    23.6930    14.3250 N.pl3        1 NAD380   0.0000
    19 N1A         24.7770    23.5000    12.3110 N.ar         1 NAD380   0.0000
    20 C2A         23.6680    23.1720    11.5420 C.ar         1 NAD380   0.0000
    21 N3A         22.4780    22.6970    11.8580 N.ar         1 NAD380   0.0000
    22 C4A         22.4410    22.5410    13.1850 C.ar         1 NAD380   0.0000
    23 O3          14.7840    23.3540    16.9300 O.3          1 NAD380   0.0000
    24 PN          13.3330    24.1220    17.0190 P.3          1 NAD380   0.0000
    25 O1N         12.6280    23.7600    18.2520 O.co2        1 NAD380   0.0000
    26 O2N         12.5840    23.9560    15.7550 O.co2        1 NAD380  -1.0000
    27 O5D         13.8180    25.6450    17.1690 O.3          1 NAD380   0.0000
    28 C5D         14.2920    26.2660    15.9310 C.3          1 NAD380   0.0000
    29 C4D         14.4630    27.7580    16.2660 C.3          1 NAD380   0.0000
    30 O4D         13.2300    28.2030    16.9340 O.3          1 NAD380   0.0000
    31 C3D         15.5980    28.0110    17.2290 C.3          1 NAD380   0.0000
    32 O3D         16.5000    29.0630    16.9080 O.3          1 NAD380   0.0000
    33 C2D         14.8600    28.1740    18.5760 C.3          1 NAD380   0.0000
    34 O2D         15.5890    28.9610    19.5540 O.3          1 NAD380   0.0000
    35 C1D         13.5760    28.8200    18.1360 C.3          1 NAD380   0.0000
    36 N1N         12.5890    28.6860    19.1680 N.ar         1 NAD380   1.0000
    37 C2N         12.0650    27.4480    19.2640 C.ar         1 NAD380   0.0000
    38 C3N         10.9890    27.3250    20.1030 C.ar         1 NAD380   0.0000
    39 C7N         10.1450    26.1020    20.4130 C.2          1 NAD380   0.0000
    40 O7N          9.2030    26.0940    21.1460 O.2          1 NAD380   0.0000
    41 N7N         10.6060    25.0390    19.7340 N.am         1 NAD380   0.0000
    42 C4N         10.5010    28.3620    20.9760 C.ar         1 NAD380   0.0000
    43 C5N         11.2030    29.5750    20.8020 C.ar         1 NAD380   0.0000
    44 C6N         12.2290    29.7810    19.9350 C.ar         1 NAD380   0.0000
    45 H5B1        17.9480    21.6983    16.1951 H            1 NAD380   0.0000
    46 H5B2        17.4662    23.2024    15.7800 H            1 NAD380   0.0000
    47 H4B         17.1938    22.3406    13.4942 H            1 NAD380   0.0000
    48 H3B         17.7299    19.9527    14.6910 H            1 NAD380   0.0000
    49 H5          17.9684    20.6085    11.9647 H            1 NAD380   0.0000
    50 H2B         19.9996    20.2938    14.9841 H            1 NAD380   0.0000
    51 H7          20.3601    19.7348    12.2841 H            1 NAD380   0.0000
    52 H1B         20.0441    21.7383    12.4078 H            1 NAD380   0.0000
    53 H8A         21.1023    21.9312    15.9830 H            1 NAD380   0.0000
    54 H6A1        26.5959    24.0523    13.8510 H            1 NAD380   0.0000
    55 H6A2        25.8180    23.5480    15.3141 H            1 NAD380   0.0000
    56 H2A         23.7955    23.3249    10.5620 H            1 NAD380   0.0000
    57 H5D1        13.6209    26.1458    15.1994 H            1 NAD380   0.0000
    58 H5D2        15.1653    25.8674    15.6511 H            1 NAD380   0.0000
    59 H4D         14.6046    28.2823    15.4263 H            1 NAD380   0.0000
    60 H3D         16.1333    27.1681    17.2843 H            1 NAD380   0.0000
    61 H17         16.0172    29.7699    16.3911 H            1 NAD380   0.0000
    62 H2D         14.6630    27.2709    18.9575 H            1 NAD380   0.0000
    63 H19         15.3422    29.9252    19.4568 H            1 NAD380   0.0000
    64 H1D         13.7413    29.7918    17.9676 H            1 NAD380   0.0000
    65 H2N         12.4369    26.6708    18.7565 H            1 NAD380   0.0000
    66 H7N1        10.1561    24.1511    19.8297 H            1 NAD380   0.0000
    67 H7N2        11.3992    25.1354    19.1327 H            1 NAD380   0.0000
    68 H4N          9.7533    28.2375    21.6283 H            1 NAD380   0.0000
    69 H5N         10.9202    30.3505    21.3664 H            1 NAD380   0.0000
    70 H6N         12.6925    30.6636    19.8563 H            1 NAD380   0.0000
@<TRIPOS>BOND
     1    1    2      ar
     2    1    3      ar
     3    1    4       1
     4    1   23       1
     5    4    5       1
     6    5    6       1
     7    6    7       1
     8    6    8       1
     9    7   12       1
    10    8    9       1
    11    8   10       1
    12   10   11       1
    13   10   12       1
    14   12   13       1
    15   13   14       1
    16   13   22       1
    17   14   15       2
    18   15   16       1
    19   16   17      ar
    20   16   22      ar
    21   17   18       1
    22   17   19      ar
    23   19   20      ar
    24   20   21      ar
    25   21   22      ar
    26   23   24       1
    27   24   25      ar
    28   24   26      ar
    29   24   27       1
    30   27   28       1
    31   28   29       1
    32   29   30       1
    33   29   31       1
    34   30   35       1
    35   31   32       1
    36   31   33       1
    37   33   34       1
    38   33   35       1
    39   35   36       1
    40   36   37      ar
    41   36   44      ar
    42   37   38      ar
    43   38   39       1
    44   38   42      ar
    45   39   40       2
    46   39   41      am
    47   42   43      ar
    48   43   44      ar
    49   44   70       1
    50    5   45       1
    51    5   46       1
    52    6   47       1
    53    8   48       1
    54    9   49       1
    55   10   50       1
    56   11   51       1
    57   12   52       1
    58   14   53       1
    59   18   54       1
    60   18   55       1
    61   20   56       1
    62   43   69       1
    63   28   57       1
    64   28   58       1
    65   29   59       1
    66   31   60       1
    67   32   61       1
    68   33   62       1
    69   34   63       1
    70   35   64       1
    71   37   65       1
    72   41   66       1
    73   41   67       1
    74   42   68       1
@<TRIPOS>SUBSTRUCTURE
     1 NAD380      1 GROUP             4 A     NAD     0 **** NAD A 380
