@<TRIPOS>MOLECULE
1uuv_IND_1_ligand
   16    17     1     0     0
SMALL
NO_CHARGES


@<TRIPOS>ATOM
     1 N1          13.3720    51.4870    83.2180 N.pl3        1 IND1452   0.0000
     2 C2          13.1670    52.7470    82.6790 C.2          1 IND1452   0.0000
     3 C3          13.5570    52.7580    81.3460 C.2          1 IND1452   0.0000
     4 C4          14.5060    50.9340    79.9090 C.ar         1 IND1452   0.0000
     5 C5          14.8990    49.6110    79.9000 C.ar         1 IND1452   0.0000
     6 C6          14.8030    48.8280    81.0460 C.ar         1 IND1452   0.0000
     7 C7          14.2930    49.3090    82.2480 C.ar         1 IND1452   0.0000
     8 C8          13.8840    50.6330    82.3060 C.ar         1 IND1452   0.0000
     9 C9          14.0070    51.4400    81.0920 C.ar         1 IND1452   0.0000
    10 H1          13.1662    51.2407    84.1651 H            1 IND1452   0.0000
    11 H2          12.7941    53.5309    83.1754 H            1 IND1452   0.0000
    12 H3          13.5266    53.5267    80.7071 H            1 IND1452   0.0000
    13 H4          14.5799    51.5036    79.0904 H            1 IND1452   0.0000
    14 H5          15.2580    49.2094    79.0575 H            1 IND1452   0.0000
    15 H6          15.1139    47.8785    81.0041 H            1 IND1452   0.0000
    16 H7          14.2232    48.7152    83.0496 H            1 IND1452   0.0000
@<TRIPOS>BOND
     1    1    2       1
     2    1    8       1
     3    2    3       2
     4    3    9       1
     5    4    5      ar
     6    4    9      ar
     7    5    6      ar
     8    6    7      ar
     9    7    8      ar
    10    8    9      ar
    11    1   10       1
    12    2   11       1
    13    3   12       1
    14    4   13       1
    15    5   14       1
    16    6   15       1
    17    7   16       1
@<TRIPOS>SUBSTRUCTURE
     1 IND1452     1 GROUP             4 A     IND     0 **** IND A1452
