@<TRIPOS>MOLECULE
4trc_ADE_1_ligand
   15    16     1     0     0
SMALL
NO_CHARGES


@<TRIPOS>ATOM
     1 N9          41.6440    34.4080   -11.4140 N.2          1 ADE301   0.0000
     2 C8          41.9310    33.6110   -12.5560 C.2          1 ADE301   0.0000
     3 N7          42.8670    34.2360   -13.2660 N.pl3        1 ADE301   0.0000
     4 C5          43.1800    35.3950   -12.6170 C.ar         1 ADE301   0.0000
     5 C6          44.0880    36.4190   -12.9150 C.ar         1 ADE301   0.0000
     6 N6          44.8730    36.3520   -14.0980 N.pl3        1 ADE301   0.0000
     7 N1          44.2140    37.4840   -12.0840 N.ar         1 ADE301   0.0000
     8 C2          43.4570    37.5580   -10.9740 C.ar         1 ADE301   0.0000
     9 N3          42.5210    36.4960   -10.6480 N.ar         1 ADE301   0.0000
    10 C4          42.4000    35.4750   -11.4580 C.ar         1 ADE301   0.0000
    11 H1          41.5049    32.7358   -12.7851 H            1 ADE301   0.0000
    12 H2          45.5211    37.0834   -14.3101 H            1 ADE301   0.0000
    13 H3          44.7772    35.5734   -14.7182 H            1 ADE301   0.0000
    14 H4          43.5394    38.3500   -10.3690 H            1 ADE301   0.0000
    15 H5          43.2695    33.9137   -14.1228 H            1 ADE301   0.0000
@<TRIPOS>BOND
     1    1    2       2
     2    1   10       1
     3    2    3       1
     4    3    4       1
     5    4    5      ar
     6    4   10      ar
     7    5    6       1
     8    5    7      ar
     9    7    8      ar
    10    8    9      ar
    11    9   10      ar
    12    8   14       1
    13    2   11       1
    14    6   12       1
    15    6   13       1
    16    3   15       1
@<TRIPOS>SUBSTRUCTURE
     1 ADE301      1 GROUP             4 A     ADE     0 **** ADE A 301
