@<TRIPOS>MOLECULE
4iil_RBF_1_ligand
   47    49     1     0     0
SMALL
NO_CHARGES


@<TRIPOS>ATOM
     1 N1          25.2520    38.5700    17.5740 N.2          1 RBF401   0.0000
     2 C2          24.5770    37.8050    16.6830 C.2          1 RBF401   0.0000
     3 O2          23.6640    37.0510    17.0420 O.2          1 RBF401   0.0000
     4 N3          24.9230    37.8540    15.3620 N.pl3        1 RBF401   0.0000
     5 C4          25.8830    38.6780    14.8970 C.2          1 RBF401   0.0000
     6 O4          26.1270    38.6910    13.6760 O.2          1 RBF401   0.0000
     7 C4A         26.6020    39.4590    15.7780 C.2          1 RBF401   0.0000
     8 N5          27.5990    40.3000    15.3660 N.2          1 RBF401   0.0000
     9 C5A         28.2870    41.0110    16.2490 C.ar         1 RBF401   0.0000
    10 C6          29.3670    41.8310    15.8240 C.ar         1 RBF401   0.0000
    11 C7          30.1020    42.6100    16.6950 C.ar         1 RBF401   0.0000
    12 C7M         31.2260    43.4880    16.1940 C.3          1 RBF401   0.0000
    13 C8          29.7690    42.5750    18.0530 C.ar         1 RBF401   0.0000
    14 C8M         30.5190    43.4010    19.0640 C.3          1 RBF401   0.0000
    15 C9          28.7310    41.7640    18.5110 C.ar         1 RBF401   0.0000
    16 C9A         27.9660    40.9500    17.6440 C.ar         1 RBF401   0.0000
    17 N10         26.9250    40.1230    18.0680 N.pl3        1 RBF401   0.0000
    18 C10         26.2590    39.3670    17.1450 C.2          1 RBF401   0.0000
    19 C1'         26.6050    39.9410    19.5000 C.3          1 RBF401   0.0000
    20 C2'         25.4800    40.7540    20.0590 C.3          1 RBF401   0.0000
    21 O2'         25.6840    42.0840    19.7250 O.3          1 RBF401   0.0000
    22 C3'         25.4150    40.5280    21.5820 C.3          1 RBF401   0.0000
    23 O3'         26.5940    40.9980    22.1830 O.3          1 RBF401   0.0000
    24 C4'         25.2040    39.0710    21.9670 C.3          1 RBF401   0.0000
    25 O4'         24.1520    38.5540    21.2340 O.3          1 RBF401   0.0000
    26 C5'         24.9530    38.9000    23.4790 C.3          1 RBF401   0.0000
    27 O5'         23.8790    39.7090    23.9140 O.3          1 RBF401   0.0000
    28 H1          24.4466    37.2568    14.7167 H            1 RBF401   0.0000
    29 H2          29.6047    41.8443    14.8527 H            1 RBF401   0.0000
    30 H7M1        31.6386    43.9735    16.9647 H            1 RBF401   0.0000
    31 H7M2        31.9185    42.9209    15.7480 H            1 RBF401   0.0000
    32 H7M3        30.8644    44.1504    15.5379 H            1 RBF401   0.0000
    33 H8M1        30.1367    43.2417    19.9742 H            1 RBF401   0.0000
    34 H8M2        31.4843    43.1400    19.0576 H            1 RBF401   0.0000
    35 H8M3        30.4341    44.3699    18.8317 H            1 RBF401   0.0000
    36 H9          28.5200    41.7579    19.4885 H            1 RBF401   0.0000
    37 H1'1        27.4272    40.1660    20.0228 H            1 RBF401   0.0000
    38 H1'2        26.3763    38.9772    19.6368 H            1 RBF401   0.0000
    39 H2'         24.6220    40.4449    19.6488 H            1 RBF401   0.0000
    40 H13         25.2878    42.6698    20.4320 H            1 RBF401   0.0000
    41 H3'         24.6486    41.0593    21.9430 H            1 RBF401   0.0000
    42 H15         26.3689    41.7150    22.8428 H            1 RBF401   0.0000
    43 H4'         26.0310    38.5620    21.7282 H            1 RBF401   0.0000
    44 H17         23.4335    38.2429    21.8560 H            1 RBF401   0.0000
    45 H5'1        25.7797    39.1595    23.9782 H            1 RBF401   0.0000
    46 H5'2        24.7368    37.9420    23.6674 H            1 RBF401   0.0000
    47 H5'         23.0235    39.1969    23.8371 H            1 RBF401   0.0000
@<TRIPOS>BOND
     1    1    2       1
     2    1   18       2
     3    2    3       2
     4    2    4       1
     5    4    5       1
     6    5    6       2
     7    5    7       1
     8    7    8       2
     9    7   18       1
    10    8    9       1
    11    9   10      ar
    12    9   16      ar
    13   10   11      ar
    14   11   12       1
    15   11   13      ar
    16   13   14       1
    17   13   15      ar
    18   15   16      ar
    19   16   17       1
    20   17   18       1
    21   17   19       1
    22   19   20       1
    23   20   21       1
    24   20   22       1
    25   22   23       1
    26   22   24       1
    27   24   25       1
    28   24   26       1
    29   26   27       1
    30    4   28       1
    31   10   29       1
    32   12   30       1
    33   12   31       1
    34   12   32       1
    35   14   33       1
    36   14   34       1
    37   14   35       1
    38   15   36       1
    39   19   37       1
    40   19   38       1
    41   20   39       1
    42   21   40       1
    43   22   41       1
    44   23   42       1
    45   24   43       1
    46   25   44       1
    47   26   45       1
    48   26   46       1
    49   27   47       1
@<TRIPOS>SUBSTRUCTURE
     1 RBF401      1 GROUP             4 A     RBF     0 **** RBF A 401
