@<TRIPOS>MOLECULE
2wa2_SAM_2_ligand
   50    52     1     0     0
SMALL
NO_CHARGES


@<TRIPOS>ATOM
     1 N           35.2390    -0.4310     5.4420 N.4          1 SAM1267   1.0000
     2 CA          35.4790     0.3580     6.6920 C.3          1 SAM1267   0.0000
     3 C           36.2960    -0.4560     7.6970 C.2          1 SAM1267   0.0000
     4 O           36.4480    -1.6870     7.5270 O.co2        1 SAM1267   0.0000
     5 OXT         36.8550     0.0790     8.6950 O.co2        1 SAM1267  -1.0000
     6 CB          34.1470     0.8030     7.3160 C.3          1 SAM1267   0.0000
     7 CG          33.4100     1.8370     6.4800 C.3          1 SAM1267   0.0000
     8 SD          33.9740     3.4880     6.9030 S.3          1 SAM1267   1.0000
     9 CE          33.1340     3.8050     8.4840 C.3          1 SAM1267   0.0000
    10 C5'         33.0670     4.5650     5.7560 C.3          1 SAM1267   0.0000
    11 C4'         33.9790     5.7760     5.6660 C.3          1 SAM1267   0.0000
    12 O4'         33.7800     6.4660     4.4550 O.3          1 SAM1267   0.0000
    13 C3'         33.7730     6.7760     6.8270 C.3          1 SAM1267   0.0000
    14 O3'         34.8960     6.7680     7.7080 O.3          1 SAM1267   0.0000
    15 C2'         33.5940     8.1030     6.1190 C.3          1 SAM1267   0.0000
    16 O2'         34.3110     9.1740     6.7050 O.3          1 SAM1267   0.0000
    17 C1'         34.0920     7.8050     4.7150 C.3          1 SAM1267   0.0000
    18 N9          33.4610     8.6240     3.6950 N.pl3        1 SAM1267   0.0000
    19 C8          32.1410     8.9850     3.5820 C.2          1 SAM1267   0.0000
    20 N7          32.0100     9.7540     2.4770 N.2          1 SAM1267   0.0000
    21 C5          33.2320     9.8820     1.9030 C.ar         1 SAM1267   0.0000
    22 C6          33.6980    10.5540     0.7900 C.ar         1 SAM1267   0.0000
    23 N6          32.8860    11.2740     0.0100 N.pl3        1 SAM1267   0.0000
    24 N1          35.0390    10.4910     0.4730 N.ar         1 SAM1267   0.0000
    25 C2          35.9170     9.7680     1.2450 C.ar         1 SAM1267   0.0000
    26 N3          35.4450     9.1230     2.3580 N.ar         1 SAM1267   0.0000
    27 C4          34.1400     9.1760     2.6650 C.ar         1 SAM1267   0.0000
    28 H1          34.2551    -0.5418     5.3015 H            1 SAM1267   0.0000
    29 H2          35.6348     0.0527     4.6614 H            1 SAM1267   0.0000
    30 HA          36.0018     1.1758     6.4515 H            1 SAM1267   0.0000
    31 HB1         34.3335     1.1964     8.2162 H            1 SAM1267   0.0000
    32 HB2         33.5599    -0.0000     7.4183 H            1 SAM1267   0.0000
    33 HG1         32.4284     1.7672     6.6576 H            1 SAM1267   0.0000
    34 HG2         33.5864     1.6654     5.5108 H            1 SAM1267   0.0000
    35 HE1         33.3819     4.7149     8.8166 H            1 SAM1267   0.0000
    36 HE2         32.1440     3.7570     8.3510 H            1 SAM1267   0.0000
    37 HE3         33.4140     3.1174     9.1540 H            1 SAM1267   0.0000
    38 H5'1        32.1704     4.8126     6.1231 H            1 SAM1267   0.0000
    39 H5'2        32.9529     4.1296     4.8630 H            1 SAM1267   0.0000
    40 H4'         34.9264     5.4569     5.6923 H            1 SAM1267   0.0000
    41 H3'         32.9418     6.5447     7.3325 H            1 SAM1267   0.0000
    42 H15         35.3152     5.8601     7.7055 H            1 SAM1267   0.0000
    43 H2'         32.6214     8.3332     6.0850 H            1 SAM1267   0.0000
    44 H17         33.6707     9.8869     6.9910 H            1 SAM1267   0.0000
    45 H1'         35.0834     7.9304     4.6783 H            1 SAM1267   0.0000
    46 H19         31.4052     8.7249     4.2073 H            1 SAM1267   0.0000
    47 H20         33.2528    11.7497    -0.7895 H            1 SAM1267   0.0000
    48 H21         31.9116    11.3370     0.2259 H            1 SAM1267   0.0000
    49 H22         36.8846     9.7136     0.9983 H            1 SAM1267   0.0000
    50 H23         35.6668    -1.3307     5.5284 H            1 SAM1267   0.0000
@<TRIPOS>BOND
     1    1    2       1
     2    2    3       1
     3    2    6       1
     4    3    4      ar
     5    3    5      ar
     6    6    7       1
     7    7    8       1
     8    8    9       1
     9    8   10       1
    10   10   11       1
    11   11   12       1
    12   11   13       1
    13   12   17       1
    14   13   14       1
    15   13   15       1
    16   15   16       1
    17   15   17       1
    18   17   18       1
    19   18   19       1
    20   18   27       1
    21   19   20       2
    22   20   21       1
    23   21   22      ar
    24   21   27      ar
    25   22   23       1
    26   22   24      ar
    27   24   25      ar
    28   25   26      ar
    29   26   27      ar
    30    1   28       1
    31    1   29       1
    32    2   30       1
    33    1   50       1
    34    6   31       1
    35    6   32       1
    36    7   33       1
    37    7   34       1
    38    9   35       1
    39    9   36       1
    40    9   37       1
    41   10   38       1
    42   10   39       1
    43   11   40       1
    44   13   41       1
    45   14   42       1
    46   15   43       1
    47   16   44       1
    48   17   45       1
    49   19   46       1
    50   23   47       1
    51   23   48       1
    52   25   49       1
@<TRIPOS>SUBSTRUCTURE
     1 SAM1267     1 GROUP             4 B     SAM     0 **** SAM B1267
