@<TRIPOS>MOLECULE
3sez_NXX_1_ligand
   68    72     1     0     0
SMALL
NO_CHARGES


@<TRIPOS>ATOM
     1 O7N         12.4340   -66.2180    48.7850 O.co2        1 NXX681   0.0000
     2 C7N         12.2540   -67.3050    48.1710 C.2          1 NXX681   0.0000
     3 O8N         13.1840   -68.0540    47.7380 O.co2        1 NXX681  -1.0000
     4 C3N         10.8360   -67.7180    47.9280 C.ar         1 NXX681   0.0000
     5 C4N         10.0480   -68.1560    48.9920 C.ar         1 NXX681   0.0000
     6 C5N          8.7450   -68.5420    48.7230 C.ar         1 NXX681   0.0000
     7 C6N          8.2810   -68.4740    47.4070 C.ar         1 NXX681   0.0000
     8 C2N         10.3300   -67.6780    46.6280 C.ar         1 NXX681   0.0000
     9 N1N          9.0680   -68.0600    46.3930 N.ar         1 NXX681   1.0000
    10 C1M          8.5270   -68.0150    45.0330 C.3          1 NXX681   0.0000
    11 C2M          7.9770   -69.3940    44.6990 C.3          1 NXX681   0.0000
    12 O2M          8.6570   -69.9560    43.5800 O.3          1 NXX681   0.0000
    13 C3M          6.5330   -69.1900    44.3120 C.3          1 NXX681   0.0000
    14 O3M          6.3460   -69.4880    42.9250 O.3          1 NXX681   0.0000
    15 O4M          7.4400   -67.0970    45.0370 O.3          1 NXX681   0.0000
    16 C4M          6.2660   -67.7110    44.5070 C.3          1 NXX681   0.0000
    17 C5M          5.0580   -67.5010    45.4190 C.3          1 NXX681   0.0000
    18 O5M          3.9140   -67.7870    44.6090 O.3          1 NXX681   0.0000
    19 PN           2.5890   -66.9030    44.7590 P.3          1 NXX681   0.0000
    20 O1N          3.0870   -65.4660    44.7640 O.co2        1 NXX681   0.0000
    21 O2N          1.6610   -67.3980    43.6680 O.co2        1 NXX681  -1.0000
    22 O3A          2.1060   -67.4370    46.2260 O.3          1 NXX681   0.0000
    23 PA           1.4220   -66.6080    47.4370 P.3          1 NXX681   0.0000
    24 O1A          0.3720   -67.4100    48.1930 O.co2        1 NXX681   0.0000
    25 O2A          2.5460   -66.0420    48.2900 O.co2        1 NXX681  -1.0000
    26 O5B          0.5770   -65.4660    46.6610 O.3          1 NXX681   0.0000
    27 C5B         -0.5070   -65.7940    45.7940 C.3          1 NXX681   0.0000
    28 C4B         -1.7740   -65.9740    46.6360 C.3          1 NXX681   0.0000
    29 C3B         -2.9200   -66.5440    45.8140 C.3          1 NXX681   0.0000
    30 O3B         -3.7870   -67.3430    46.6420 O.3          1 NXX681   0.0000
    31 C2B         -3.6710   -65.3290    45.3230 C.3          1 NXX681   0.0000
    32 O2P         -5.0450   -65.6670    45.0300 O.3          1 NXX681   0.0000
    33 C1B         -3.5070   -64.3930    46.5130 C.3          1 NXX681   0.0000
    34 O4B         -2.2440   -64.7270    47.1340 O.3          1 NXX681   0.0000
    35 N9A         -3.5510   -62.9630    46.0680 N.pl3        1 NXX681   0.0000
    36 C8A         -3.0060   -62.5280    44.9210 C.2          1 NXX681   0.0000
    37 N7A         -3.2090   -61.2050    44.7950 N.2          1 NXX681   0.0000
    38 C5A         -3.9020   -60.8180    45.8770 C.ar         1 NXX681   0.0000
    39 C4A         -4.1350   -61.9090    46.6870 C.ar         1 NXX681   0.0000
    40 C6A         -4.4400   -59.5150    46.2920 C.ar         1 NXX681   0.0000
    41 N6A         -4.2000   -58.4700    45.4690 N.pl3        1 NXX681   0.0000
    42 N1A         -5.1520   -59.4370    47.4500 N.ar         1 NXX681   0.0000
    43 C2A         -5.3450   -60.5340    48.2040 C.ar         1 NXX681   0.0000
    44 N3A         -4.8460   -61.7310    47.8300 N.ar         1 NXX681   0.0000
    45 H4N         10.4130   -68.1904    49.9224 H            1 NXX681   0.0000
    46 H5N          8.1474   -68.8635    49.4575 H            1 NXX681   0.0000
    47 H6N          7.3372   -68.7402    47.2110 H            1 NXX681   0.0000
    48 H2N         10.9079   -67.3651    45.8743 H            1 NXX681   0.0000
    49 H1M          9.2284   -67.7388    44.3760 H            1 NXX681   0.0000
    50 H2M          8.0454   -70.0001    45.4914 H            1 NXX681   0.0000
    51 H7           8.2791   -70.8600    43.3799 H            1 NXX681   0.0000
    52 H3M          5.9264   -69.7429    44.8832 H            1 NXX681   0.0000
    53 H9           5.3863   -69.3493    42.6807 H            1 NXX681   0.0000
    54 H4M          6.0674   -67.3028    43.6160 H            1 NXX681   0.0000
    55 H5M1         5.0272   -66.5566    45.7465 H            1 NXX681   0.0000
    56 H5M2         5.0975   -68.1237    46.2005 H            1 NXX681   0.0000
    57 H5B1        -0.3032   -66.6435    45.3073 H            1 NXX681   0.0000
    58 H5B2        -0.6443   -65.0560    45.1333 H            1 NXX681   0.0000
    59 H4B         -1.5790   -66.5856    47.4028 H            1 NXX681   0.0000
    60 H3B         -2.5719   -67.0800    45.0449 H            1 NXX681   0.0000
    61 H17         -4.7197   -67.3034    46.2836 H            1 NXX681   0.0000
    62 H2B         -3.2253   -64.9464    44.5137 H            1 NXX681   0.0000
    63 H2P         -5.5269   -64.8526    44.7067 H            1 NXX681   0.0000
    64 H1B         -4.2474   -64.5573    47.1648 H            1 NXX681   0.0000
    65 H8A         -2.5220   -63.1015    44.2600 H            1 NXX681   0.0000
    66 H6A1        -4.5431   -57.5603    45.7029 H            1 NXX681   0.0000
    67 H6A2        -3.6793   -58.6066    44.6263 H            1 NXX681   0.0000
    68 H2A         -5.8660   -60.4616    49.0545 H            1 NXX681   0.0000
@<TRIPOS>BOND
     1    1    2      ar
     2    2    3      ar
     3    2    4       1
     4    4    5      ar
     5    4    8      ar
     6    5    6      ar
     7    6    7      ar
     8    7    9      ar
     9    8    9      ar
    10    9   10       1
    11   10   11       1
    12   10   15       1
    13   11   12       1
    14   11   13       1
    15   13   14       1
    16   13   16       1
    17   15   16       1
    18   16   17       1
    19   17   18       1
    20   18   19       1
    21   19   20      ar
    22   19   21      ar
    23   19   22       1
    24   22   23       1
    25   23   24      ar
    26   23   25      ar
    27   23   26       1
    28   26   27       1
    29   27   28       1
    30   28   29       1
    31   28   34       1
    32   29   30       1
    33   29   31       1
    34   31   32       1
    35   31   33       1
    36   33   34       1
    37   33   35       1
    38   35   36       1
    39   35   39       1
    40   36   37       2
    41   37   38       1
    42   38   39      ar
    43   38   40      ar
    44   39   44      ar
    45   40   41       1
    46   40   42      ar
    47   42   43      ar
    48   43   44      ar
    49   43   68       1
    50    5   45       1
    51    6   46       1
    52    7   47       1
    53    8   48       1
    54   10   49       1
    55   11   50       1
    56   12   51       1
    57   13   52       1
    58   14   53       1
    59   16   54       1
    60   17   55       1
    61   17   56       1
    62   41   67       1
    63   41   66       1
    64   27   57       1
    65   27   58       1
    66   28   59       1
    67   29   60       1
    68   30   61       1
    69   31   62       1
    70   32   63       1
    71   33   64       1
    72   36   65       1
@<TRIPOS>SUBSTRUCTURE
     1 NXX681      1 GROUP             4 A     NXX     0 **** NXX A 681
