@<TRIPOS>MOLECULE
3dko_IHZ_1_ligand
   47    49     1     0     0
SMALL
NO_CHARGES


@<TRIPOS>ATOM
     1 FAE        -15.9510    11.2950    -5.1960 F            1 IHZ1001   0.0000
     2 CBD        -16.3060    10.1290    -4.6470 C.3          1 IHZ1001   0.0000
     3 FAF        -16.0390    10.1160    -3.3310 F            1 IHZ1001   0.0000
     4 FAG        -15.5910     9.1590    -5.2190 F            1 IHZ1001   0.0000
     5 CBB        -17.8040     9.8570    -4.9210 C.ar         1 IHZ1001   0.0000
     6 CAP        -18.2820     9.9430    -6.2300 C.ar         1 IHZ1001   0.0000
     7 CAK        -18.6750     9.5010    -3.8810 C.ar         1 IHZ1001   0.0000
     8 CAH        -20.0140     9.2470    -4.1630 C.ar         1 IHZ1001   0.0000
     9 CAI        -20.4770     9.3510    -5.4790 C.ar         1 IHZ1001   0.0000
    10 CAX        -19.6270     9.6990    -6.5300 C.ar         1 IHZ1001   0.0000
    11 NAS        -20.1320     9.7850    -7.7900 N.am         1 IHZ1001   0.0000
    12 CAV        -19.4570     9.6040    -8.9480 C.2          1 IHZ1001   0.0000
    13 OAD        -18.2530     9.3590    -9.0340 O.2          1 IHZ1001   0.0000
    14 CAZ        -20.2660     9.7540   -10.2500 C.ar         1 IHZ1001   0.0000
    15 CAQ        -19.6350    10.2930   -11.3760 C.ar         1 IHZ1001   0.0000
    16 CAL        -21.6020     9.3580   -10.3370 C.ar         1 IHZ1001   0.0000
    17 CAJ        -22.2690     9.5230   -11.5520 C.ar         1 IHZ1001   0.0000
    18 CAW        -21.6290    10.0680   -12.6750 C.ar         1 IHZ1001   0.0000
    19 CAA        -22.4420    10.2240   -13.9650 C.3          1 IHZ1001   0.0000
    20 CBC        -20.2840    10.4490   -12.6080 C.ar         1 IHZ1001   0.0000
    21 NAT        -19.5920    11.0090   -13.6400 N.pl3        1 IHZ1001   0.0000
    22 CAY        -19.3240    10.5320   -14.8820 C.ar         1 IHZ1001   0.0000
    23 CAO        -19.8650     9.3380   -15.3760 C.ar         1 IHZ1001   0.0000
    24 CAM        -18.4650    11.2690   -15.7250 C.ar         1 IHZ1001   0.0000
    25 NAR        -18.1760    10.8530   -16.9590 N.ar         1 IHZ1001   0.0000
    26 CAN        -18.6830     9.7150   -17.4430 C.ar         1 IHZ1001   0.0000
    27 CBA        -19.5510     8.9200   -16.6740 C.ar         1 IHZ1001   0.0000
    28 CAU        -20.1540     7.5920   -17.1990 C.2          1 IHZ1001   0.0000
    29 OAC        -21.0380     7.0160   -16.5620 O.2          1 IHZ1001   0.0000
    30 NAB        -19.6630     7.1230   -18.3510 N.am         1 IHZ1001   0.0000
    31 HAP        -17.6510    10.1836    -6.9675 H            1 IHZ1001   0.0000
    32 HAK        -18.3361     9.4301    -2.9428 H            1 IHZ1001   0.0000
    33 HAH        -20.6423     8.9913    -3.4282 H            1 IHZ1001   0.0000
    34 HAI        -21.4417     9.1714    -5.6717 H            1 IHZ1001   0.0000
    35 HAS        -21.1043    10.0051    -7.8684 H            1 IHZ1001   0.0000
    36 HAQ        -18.6800    10.5792   -11.2984 H            1 IHZ1001   0.0000
    37 HAL        -22.0708     8.9647    -9.5461 H            1 IHZ1001   0.0000
    38 HAJ        -23.2271     9.2457   -11.6237 H            1 IHZ1001   0.0000
    39 HAA1       -21.8639    10.6220   -14.6773 H            1 IHZ1001   0.0000
    40 HAA2       -22.7690     9.3273   -14.2634 H            1 IHZ1001   0.0000
    41 HAA3       -23.2236    10.8245   -13.7959 H            1 IHZ1001   0.0000
    42 HAT        -19.2218    11.9186   -13.4516 H            1 IHZ1001   0.0000
    43 HAO        -20.4726     8.7871   -14.8039 H            1 IHZ1001   0.0000
    44 HAM        -18.0642    12.1217   -15.3899 H            1 IHZ1001   0.0000
    45 HAN        -18.4407     9.4238   -18.3685 H            1 IHZ1001   0.0000
    46 HAB1       -20.0165     6.2699   -18.7347 H            1 IHZ1001   0.0000
    47 HAB2       -18.9423     7.6254   -18.8287 H            1 IHZ1001   0.0000
@<TRIPOS>BOND
     1    1    2       1
     2    2    3       1
     3    2    4       1
     4    2    5       1
     5    5    6      ar
     6    5    7      ar
     7    6   10      ar
     8    7    8      ar
     9    8    9      ar
    10    9   10      ar
    11   10   11       1
    12   11   12      am
    13   12   13       2
    14   12   14       1
    15   14   15      ar
    16   14   16      ar
    17   15   20      ar
    18   16   17      ar
    19   17   18      ar
    20   18   19       1
    21   18   20      ar
    22   20   21       1
    23   21   22       1
    24   22   23      ar
    25   22   24      ar
    26   23   27      ar
    27   24   25      ar
    28   25   26      ar
    29   26   27      ar
    30   27   28       1
    31   28   29       2
    32   28   30      am
    33    6   31       1
    34    7   32       1
    35    8   33       1
    36    9   34       1
    37   11   35       1
    38   15   36       1
    39   16   37       1
    40   17   38       1
    41   19   39       1
    42   19   40       1
    43   19   41       1
    44   21   42       1
    45   23   43       1
    46   24   44       1
    47   26   45       1
    48   30   46       1
    49   30   47       1
@<TRIPOS>SUBSTRUCTURE
     1 IHZ1001     1 GROUP             4 A     IHZ     0 **** IHZ A1001
