@<TRIPOS>MOLECULE
5hyn_SAH_1_ligand
   46    48     1     0     0
SMALL
NO_CHARGES


@<TRIPOS>ATOM
     1 N           78.7010   -99.9910     3.5540 N.4          1 SAH1009   1.0000
     2 CA          77.9490   -98.7370     3.4660 C.3          1 SAH1009   0.0000
     3 CB          77.1970   -98.5740     2.1460 C.3          1 SAH1009   0.0000
     4 CG          78.1430   -98.3380     0.9750 C.3          1 SAH1009   0.0000
     5 SD          78.4050   -96.5670     0.6730 S.3          1 SAH1009   0.0000
     6 C           77.0050   -98.6140     4.6430 C.2          1 SAH1009   0.0000
     7 O           76.2650   -97.6410     4.7830 O.co2        1 SAH1009   0.0000
     8 OXT         76.9800   -99.5020     5.4820 O.co2        1 SAH1009  -1.0000
     9 C5'         80.2040   -96.7190     0.4390 C.3          1 SAH1009   0.0000
    10 C4'         81.0180   -96.4470     1.7070 C.3          1 SAH1009   0.0000
    11 O4'         80.7930   -97.5070     2.6300 O.3          1 SAH1009   0.0000
    12 C3'         82.5330   -96.3490     1.5250 C.3          1 SAH1009   0.0000
    13 O3'         82.9880   -95.0180     1.3310 O.3          1 SAH1009   0.0000
    14 C2'         83.0350   -96.9710     2.8200 C.3          1 SAH1009   0.0000
    15 O2'         83.0420   -96.0300     3.8550 O.3          1 SAH1009   0.0000
    16 C1'         81.9740   -97.9580     3.2330 C.3          1 SAH1009   0.0000
    17 N9          82.3180   -99.2160     2.5860 N.pl3        1 SAH1009   0.0000
    18 C8          81.7770   -99.7490     1.4490 C.2          1 SAH1009   0.0000
    19 N7          82.4030  -100.9130     1.1470 N.2          1 SAH1009   0.0000
    20 C5          83.3560  -101.1140     2.0750 C.ar         1 SAH1009   0.0000
    21 C6          84.2770  -102.1290     2.2650 C.ar         1 SAH1009   0.0000
    22 N6          84.3290  -103.1440     1.4080 N.pl3        1 SAH1009   0.0000
    23 N1          85.1390  -102.0640     3.3440 N.ar         1 SAH1009   0.0000
    24 C2          85.0860  -101.0030     4.2170 C.ar         1 SAH1009   0.0000
    25 N3          84.1660   -99.9980     4.0400 N.ar         1 SAH1009   0.0000
    26 C4          83.3120  -100.0580     2.9850 C.ar         1 SAH1009   0.0000
    27 H1          79.5054   -99.8574     4.1329 H            1 SAH1009   0.0000
    28 H2          78.1194  -100.7014     3.9504 H            1 SAH1009   0.0000
    29 HA          78.6077   -97.9873     3.5303 H            1 SAH1009   0.0000
    30 HB1         76.5767   -97.7934     2.2222 H            1 SAH1009   0.0000
    31 HB2         76.6679   -99.4044     1.9713 H            1 SAH1009   0.0000
    32 HG1         77.7520   -98.7529     0.1534 H            1 SAH1009   0.0000
    33 HG2         79.0236   -98.7663     1.1779 H            1 SAH1009   0.0000
    34 H5'1        80.4868   -96.0656    -0.2632 H            1 SAH1009   0.0000
    35 H5'2        80.4041   -97.6486     0.1294 H            1 SAH1009   0.0000
    36 H4'         80.6919   -95.5950     2.1167 H            1 SAH1009   0.0000
    37 H3'         82.8145   -96.9153     0.7504 H            1 SAH1009   0.0000
    38 H12         83.4469   -94.9484     0.4452 H            1 SAH1009   0.0000
    39 H2'         83.9274   -97.4071     2.7045 H            1 SAH1009   0.0000
    40 H14         83.6426   -95.2691     3.6096 H            1 SAH1009   0.0000
    41 H1'         81.8922   -98.0441     4.2259 H            1 SAH1009   0.0000
    42 H16         81.0323   -99.3418     0.9202 H            1 SAH1009   0.0000
    43 H17         84.9937  -103.8788     1.5430 H            1 SAH1009   0.0000
    44 H18         83.7034  -103.1727     0.6283 H            1 SAH1009   0.0000
    45 H19         85.7224  -100.9625     4.9873 H            1 SAH1009   0.0000
    46 H20         78.9916  -100.2703     2.6388 H            1 SAH1009   0.0000
@<TRIPOS>BOND
     1    1    2       1
     2    2    3       1
     3    2    6       1
     4    3    4       1
     5    4    5       1
     6    5    9       1
     7    6    7      ar
     8    6    8      ar
     9    9   10       1
    10   10   11       1
    11   10   12       1
    12   11   16       1
    13   12   13       1
    14   12   14       1
    15   14   15       1
    16   14   16       1
    17   16   17       1
    18   17   18       1
    19   17   26       1
    20   18   19       2
    21   19   20       1
    22   20   21      ar
    23   20   26      ar
    24   21   22       1
    25   21   23      ar
    26   23   24      ar
    27   24   25      ar
    28   25   26      ar
    29    1   27       1
    30    1   28       1
    31    2   29       1
    32    3   30       1
    33    3   31       1
    34    4   32       1
    35    4   33       1
    36    1   46       1
    37    9   34       1
    38    9   35       1
    39   10   36       1
    40   12   37       1
    41   13   38       1
    42   14   39       1
    43   15   40       1
    44   16   41       1
    45   18   42       1
    46   22   43       1
    47   22   44       1
    48   24   45       1
@<TRIPOS>SUBSTRUCTURE
     1 SAH1009     1 GROUP             4 A     SAH     0 **** SAH A1009
