@<TRIPOS>MOLECULE
3eks_ATP_2_ligand
   43    45     1     0     0
SMALL
NO_CHARGES


@<TRIPOS>ATOM
     1 PG         167.0740     1.2120    32.2900 P.3          1 ATP800   0.0000
     2 O1G        168.1930     1.2140    33.2580 O.co2        1 ATP800   0.0000
     3 O2G        167.0160    -0.1340    31.4090 O.co2        1 ATP800  -1.0000
     4 O3G        165.6350     1.3420    32.9990 O.co2        1 ATP800  -1.0000
     5 PB         167.0290     2.3780    29.6850 P.3          1 ATP800   0.0000
     6 O1B        166.2150     1.1950    29.3270 O.co2        1 ATP800   0.0000
     7 O2B        166.5850     3.7040    29.2020 O.co2        1 ATP800  -1.0000
     8 O3B        167.1410     2.4730    31.2890 O.3          1 ATP800   0.0000
     9 PA         169.0160     1.8810    27.7480 P.3          1 ATP800   0.0000
    10 O1A        169.2060     0.4230    27.5850 O.co2        1 ATP800   0.0000
    11 O2A        168.0790     2.5820    26.8430 O.co2        1 ATP800  -1.0000
    12 O3A        168.5660     2.1420    29.2730 O.3          1 ATP800   0.0000
    13 O5'        170.4670     2.5790    27.7170 O.3          1 ATP800   0.0000
    14 C5'        170.6370     3.9900    27.8800 C.3          1 ATP800   0.0000
    15 C4'        171.9810     4.2690    28.5560 C.3          1 ATP800   0.0000
    16 O4'        173.0170     3.6940    27.7390 O.3          1 ATP800   0.0000
    17 C3'        172.2800     5.7680    28.6480 C.3          1 ATP800   0.0000
    18 O3'        173.0930     6.0340    29.7940 O.3          1 ATP800   0.0000
    19 C2'        173.1090     5.9780    27.3840 C.3          1 ATP800   0.0000
    20 O2'        173.9380     7.1310    27.5480 O.3          1 ATP800   0.0000
    21 C1'        173.9810     4.7280    27.4880 C.3          1 ATP800   0.0000
    22 N9         174.6910     4.5100    26.2070 N.pl3        1 ATP800   0.0000
    23 C8         174.1530     4.6320    24.9950 C.2          1 ATP800   0.0000
    24 N7         175.0740     4.3720    24.0700 N.2          1 ATP800   0.0000
    25 C5         176.2100     4.0820    24.6960 C.ar         1 ATP800   0.0000
    26 C6         177.4830     3.7250    24.2700 C.ar         1 ATP800   0.0000
    27 N6         177.7670     3.6580    22.9720 N.pl3        1 ATP800   0.0000
    28 N1         178.4250     3.4690    25.1880 N.ar         1 ATP800   0.0000
    29 C2         178.1580     3.5610    26.4790 C.ar         1 ATP800   0.0000
    30 N3         176.9610     3.9030    26.9190 N.ar         1 ATP800   0.0000
    31 C4         175.9670     4.1680    26.0580 C.ar         1 ATP800   0.0000
    32 H5'1       169.8973     4.3512    28.4478 H            1 ATP800   0.0000
    33 H5'2       170.6164     4.4336    26.9840 H            1 ATP800   0.0000
    34 H4'        171.9972     3.8597    29.4683 H            1 ATP800   0.0000
    35 H3'        171.4449     6.3180    28.6446 H            1 ATP800   0.0000
    36 H5         172.5069     6.2187    30.5829 H            1 ATP800   0.0000
    37 H2'        172.5569     6.0050    26.5507 H            1 ATP800   0.0000
    38 H7         174.4823     7.2706    26.7208 H            1 ATP800   0.0000
    39 H1'        174.6279     4.8055    28.2466 H            1 ATP800   0.0000
    40 H9         173.2026     4.8808    24.8084 H            1 ATP800   0.0000
    41 H10        178.6861     3.4002    22.6739 H            1 ATP800   0.0000
    42 H11        177.0614     3.8655    22.2944 H            1 ATP800   0.0000
    43 H12        178.8822     3.3663    27.1406 H            1 ATP800   0.0000
@<TRIPOS>BOND
     1    1    2      ar
     2    1    3      ar
     3    1    4      ar
     4    1    8       1
     5    5    6      ar
     6    5    7      ar
     7    5    8       1
     8    5   12       1
     9    9   10      ar
    10    9   11      ar
    11    9   12       1
    12    9   13       1
    13   13   14       1
    14   14   15       1
    15   15   16       1
    16   15   17       1
    17   16   21       1
    18   17   18       1
    19   17   19       1
    20   19   20       1
    21   19   21       1
    22   21   22       1
    23   22   23       1
    24   22   31       1
    25   23   24       2
    26   24   25       1
    27   25   26      ar
    28   25   31      ar
    29   26   27       1
    30   26   28      ar
    31   28   29      ar
    32   29   30      ar
    33   30   31      ar
    34   29   43       1
    35   27   42       1
    36   27   41       1
    37   23   40       1
    38   14   32       1
    39   14   33       1
    40   15   34       1
    41   17   35       1
    42   18   36       1
    43   19   37       1
    44   20   38       1
    45   21   39       1
@<TRIPOS>SUBSTRUCTURE
     1 ATP800      1 GROUP             4 A     ATP     0 **** ATP A 800
