@<TRIPOS>MOLECULE
4ict_1ED_1_ligand
   41    43     1     0     0
SMALL
NO_CHARGES


@<TRIPOS>ATOM
     1 OB           9.5030    21.7110    -0.8180 O.2          1 1ED406   0.0000
     2 CB           9.0240    20.6010    -0.9510 C.2          1 1ED406   0.0000
     3 CAB          9.8970    19.4680    -1.4410 C.3          1 1ED406   0.0000
     4 CBB         10.0710    19.4920    -2.9720 C.3          1 1ED406   0.0000
     5 CGB         11.2140    18.5490    -3.3220 C.ar         1 1ED406   0.0000
     6 CD4         10.9620    17.1820    -3.5030 C.ar         1 1ED406   0.0000
     7 CE4         12.0050    16.3030    -3.8060 C.ar         1 1ED406   0.0000
     8 CZB         13.3070    16.7860    -3.9290 C.ar         1 1ED406   0.0000
     9 OHB         14.3080    15.9150    -4.2260 O.3          1 1ED406   0.0000
    10 CE3         13.5750    18.1470    -3.7550 C.ar         1 1ED406   0.0000
    11 CD3         12.5220    19.0260    -3.4540 C.ar         1 1ED406   0.0000
    12 NB           9.4110    18.1650    -0.9960 N.am         1 1ED406   0.0000
    13 CA           8.1410    17.8880    -0.6600 C.2          1 1ED406   0.0000
    14 OA           7.7930    16.7380    -0.3890 O.2          1 1ED406   0.0000
    15 NA           7.7470    20.3560    -0.6560 N.am         1 1ED406   0.0000
    16 CAA          7.1390    19.0310    -0.6030 C.3          1 1ED406   0.0000
    17 CBA          6.0310    18.9180    -1.6700 C.3          1 1ED406   0.0000
    18 CGA          6.5400    19.0690    -3.0960 C.ar         1 1ED406   0.0000
    19 CD1          6.5630    20.3260    -3.7040 C.ar         1 1ED406   0.0000
    20 CE1          7.0290    20.4740    -5.0130 C.ar         1 1ED406   0.0000
    21 CZA          7.4750    19.3540    -5.7270 C.ar         1 1ED406   0.0000
    22 CE2          7.4490    18.0940    -5.1240 C.ar         1 1ED406   0.0000
    23 CD2          6.9760    17.9460    -3.8150 C.ar         1 1ED406   0.0000
    24 HAB         10.8032    19.5983    -1.0388 H            1 1ED406   0.0000
    25 HBB1        10.2893    20.4194    -3.2756 H            1 1ED406   0.0000
    26 HBB2         9.2287    19.1857    -3.4155 H            1 1ED406   0.0000
    27 HD4         10.0289    16.8333    -3.4146 H            1 1ED406   0.0000
    28 HE4         11.8179    15.3291    -3.9344 H            1 1ED406   0.0000
    29 HHB         15.2474    16.2453    -4.3177 H            1 1ED406   0.0000
    30 HE3         14.5094    18.4919    -3.8442 H            1 1ED406   0.0000
    31 HD3         12.7090    20.0009    -3.3331 H            1 1ED406   0.0000
    32 HB          10.0762    17.4207    -0.9369 H            1 1ED406   0.0000
    33 HA           7.1609    21.1410    -0.4556 H            1 1ED406   0.0000
    34 HAA          6.6841    18.9641     0.2850 H            1 1ED406   0.0000
    35 HBA1         5.3534    19.6332    -1.4989 H            1 1ED406   0.0000
    36 HBA2         5.5981    18.0208    -1.5823 H            1 1ED406   0.0000
    37 HD1          6.2432    21.1272    -3.1982 H            1 1ED406   0.0000
    38 HE1          7.0442    21.3783    -5.4397 H            1 1ED406   0.0000
    39 HZA          7.8103    19.4560    -6.6636 H            1 1ED406   0.0000
    40 HE2          7.7700    17.2936    -5.6303 H            1 1ED406   0.0000
    41 HD2          6.9489    17.0401    -3.3924 H            1 1ED406   0.0000
@<TRIPOS>BOND
     1    1    2       2
     2    2    3       1
     3    2   15      am
     4    3    4       1
     5    3   12       1
     6    4    5       1
     7    5    6      ar
     8    5   11      ar
     9    6    7      ar
    10    7    8      ar
    11    8    9       1
    12    8   10      ar
    13   10   11      ar
    14   12   13      am
    15   13   14       2
    16   13   16       1
    17   15   16       1
    18   16   17       1
    19   17   18       1
    20   18   19      ar
    21   18   23      ar
    22   19   20      ar
    23   20   21      ar
    24   21   22      ar
    25   22   23      ar
    26    3   24       1
    27    4   25       1
    28    4   26       1
    29    6   27       1
    30    7   28       1
    31    9   29       1
    32   10   30       1
    33   11   31       1
    34   12   32       1
    35   15   33       1
    36   16   34       1
    37   17   35       1
    38   17   36       1
    39   19   37       1
    40   20   38       1
    41   21   39       1
    42   22   40       1
    43   23   41       1
@<TRIPOS>SUBSTRUCTURE
     1 1ED406      1 GROUP             4 A     1ED     0 **** 1ED A 406
