@<TRIPOS>MOLECULE
1xnx_ATE_2_ligand
   50    53     1     0     0
SMALL
NO_CHARGES


@<TRIPOS>ATOM
     1 O1          22.2600    66.4190    72.7230 O.3          1 ATE600   0.0000
     2 C3          22.3020    66.3130    71.2960 C.3          1 ATE600   0.0000
     3 C2          20.9150    65.7790    70.8650 C.3          1 ATE600   0.0000
     4 C1          20.7390    64.2830    71.1510 C.3          1 ATE600   0.0000
     5 C4          23.5540    65.4490    71.0480 C.3          1 ATE600   0.0000
     6 C5          23.2760    63.9670    71.4080 C.3          1 ATE600   0.0000
     7 C6          24.5470    63.1250    71.1160 C.3          1 ATE600   0.0000
     8 C10         21.9410    63.3590    70.7990 C.3          1 ATE600   0.0000
     9 C19         22.0280    63.3740    69.2220 C.3          1 ATE600   0.0000
    10 C9          21.7130    61.8470    71.1890 C.3          1 ATE600   0.0000
    11 C11         20.4170    61.1870    70.6250 C.3          1 ATE600   0.0000
    12 C8          23.0370    61.0290    70.8630 C.3          1 ATE600   0.0000
    13 C7          24.3410    61.6360    71.4330 C.3          1 ATE600   0.0000
    14 C14         22.8410    59.5350    71.2420 C.3          1 ATE600   0.0000
    15 C15         23.9440    58.4880    71.0830 C.3          1 ATE600   0.0000
    16 C13         21.5340    58.8650    70.6910 C.3          1 ATE600   0.0000
    17 C12         20.2550    59.6900    70.9720 C.3          1 ATE600   0.0000
    18 C18         21.5840    58.6120    69.1450 C.3          1 ATE600   0.0000
    19 C17         21.8240    57.5080    71.3150 C.2          1 ATE600   0.0000
    20 C16         23.1410    57.2900    71.5500 C.2          1 ATE600   0.0000
    21 H1          21.6404    65.7256    73.0907 H            1 ATE600   0.0000
    22 H2          22.4437    67.2208    70.9013 H            1 ATE600   0.0000
    23 H3          20.8050    65.9316    69.8829 H            1 ATE600   0.0000
    24 H4          20.2096    66.2844    71.3619 H            1 ATE600   0.0000
    25 H5          19.9487    63.9651    70.6273 H            1 ATE600   0.0000
    26 H6          20.5541    64.1809    72.1284 H            1 ATE600   0.0000
    27 H7          24.3051    65.7891    71.6139 H            1 ATE600   0.0000
    28 H8          23.8094    65.5102    70.0831 H            1 ATE600   0.0000
    29 H9          23.1571    63.9455    72.4007 H            1 ATE600   0.0000
    30 H10         25.2993    63.4725    71.6757 H            1 ATE600   0.0000
    31 H11         24.7805    63.2191    70.1482 H            1 ATE600   0.0000
    32 H12         22.7868    62.7946    68.9245 H            1 ATE600   0.0000
    33 H13         21.1727    63.0265    68.8377 H            1 ATE600   0.0000
    34 H14         22.1795    64.3104    68.9054 H            1 ATE600   0.0000
    35 H15         21.6185    61.8313    72.1844 H            1 ATE600   0.0000
    36 H16         20.4290    61.2769    69.6291 H            1 ATE600   0.0000
    37 H17         19.6295    61.6800    70.9947 H            1 ATE600   0.0000
    38 H18         23.1355    61.0499    69.8681 H            1 ATE600   0.0000
    39 H19         24.3265    61.5281    72.4271 H            1 ATE600   0.0000
    40 H20         25.1136    61.1268    71.0537 H            1 ATE600   0.0000
    41 H21         22.6887    59.5639    72.2299 H            1 ATE600   0.0000
    42 H22         24.7319    58.6717    71.6708 H            1 ATE600   0.0000
    43 H23         24.2493    58.3965    70.1352 H            1 ATE600   0.0000
    44 H24         19.5067    59.3148    70.4250 H            1 ATE600   0.0000
    45 H25         20.0306    59.6100    71.9432 H            1 ATE600   0.0000
    46 H26         20.7293    58.1853    68.8492 H            1 ATE600   0.0000
    47 H27         21.7042    59.4829    68.6684 H            1 ATE600   0.0000
    48 H28         22.3504    58.0064    68.9310 H            1 ATE600   0.0000
    49 H29         21.1112    56.8408    71.5311 H            1 ATE600   0.0000
    50 H30         23.5240    56.4658    71.9672 H            1 ATE600   0.0000
@<TRIPOS>BOND
     1    1    2       1
     2    2    3       1
     3    2    5       1
     4    3    4       1
     5    4    8       1
     6    5    6       1
     7    6    7       1
     8    6    8       1
     9    7   13       1
    10    8    9       1
    11    8   10       1
    12   10   11       1
    13   10   12       1
    14   11   17       1
    15   12   13       1
    16   12   14       1
    17   14   15       1
    18   14   16       1
    19   15   20       1
    20   16   17       1
    21   16   18       1
    22   16   19       1
    23   19   20       2
    24    1   21       1
    25    2   22       1
    26    3   23       1
    27    3   24       1
    28    4   25       1
    29    4   26       1
    30    5   27       1
    31    5   28       1
    32    6   29       1
    33    7   30       1
    34    7   31       1
    35    9   32       1
    36    9   33       1
    37    9   34       1
    38   10   35       1
    39   11   36       1
    40   11   37       1
    41   12   38       1
    42   13   39       1
    43   13   40       1
    44   14   41       1
    45   15   42       1
    46   15   43       1
    47   17   44       1
    48   17   45       1
    49   18   46       1
    50   18   47       1
    51   18   48       1
    52   19   49       1
    53   20   50       1
@<TRIPOS>SUBSTRUCTURE
     1 ATE600      1 GROUP             4 B     ATE     0 **** ATE B 600
