@<TRIPOS>MOLECULE
2iwe_2IH_1_ligand
   34    35     1     0     0
SMALL
NO_CHARGES


@<TRIPOS>ATOM
     1 C1          -9.0670    -7.5900    -1.6980 C.2          1 2IH1001   0.0000
     2 C5          -8.2160    -6.5260    -1.5910 C.2          1 2IH1001   0.0000
     3 N4          -8.2100    -6.1340    -0.3190 N.2          1 2IH1001   0.0000
     4 C3          -9.0170    -6.9750     0.3530 C.2          1 2IH1001   0.0000
     5 N2          -9.5640    -7.8400    -0.4910 N.pl3        1 2IH1001   0.0000
     6 C6         -10.5190    -8.8950    -0.1450 C.3          1 2IH1001   0.0000
     7 C7         -11.8030    -8.7990    -0.9820 C.3          1 2IH1001   0.0000
     8 C8         -12.8870    -9.6260    -0.3230 C.3          1 2IH1001   0.0000
     9 C9         -13.4310   -10.7300    -1.2210 C.3          1 2IH1001   0.0000
    10 C10        -14.6270   -11.3580    -0.5100 C.3          1 2IH1001   0.0000
    11 C11        -15.0080   -12.7330    -1.0680 C.3          1 2IH1001   0.0000
    12 N12        -15.8910   -13.4570    -0.1290 N.pl3        1 2IH1001   0.0000
    13 C16        -16.7850   -14.4140    -0.4550 C.2          1 2IH1001   0.0000
    14 C13        -15.9460   -13.2810     1.1980 C.2          1 2IH1001   0.0000
    15 C14        -16.8950   -14.1380     1.7120 C.2          1 2IH1001   0.0000
    16 N15        -17.3960   -14.8390     0.6780 N.2          1 2IH1001   0.0000
    17 H1          -9.2785    -8.0920    -2.5366 H            1 2IH1001   0.0000
    18 H2          -7.6909    -6.1149    -2.3362 H            1 2IH1001   0.0000
    19 H3          -9.1798    -6.9516     1.3394 H            1 2IH1001   0.0000
    20 H4         -10.7565    -8.8119     0.8228 H            1 2IH1001   0.0000
    21 H5         -10.0920    -9.7844    -0.3082 H            1 2IH1001   0.0000
    22 H6         -11.6292    -9.1476    -1.9030 H            1 2IH1001   0.0000
    23 H7         -12.0965    -7.8446    -1.0367 H            1 2IH1001   0.0000
    24 H8         -13.6416    -9.0193    -0.0730 H            1 2IH1001   0.0000
    25 H9         -12.5090   -10.0454     0.5024 H            1 2IH1001   0.0000
    26 H10        -12.7255   -11.4214    -1.3765 H            1 2IH1001   0.0000
    27 H11        -13.7194   -10.3450    -2.0977 H            1 2IH1001   0.0000
    28 H12        -15.4121   -10.7465    -0.6085 H            1 2IH1001   0.0000
    29 H13        -14.4030   -11.4594     0.4593 H            1 2IH1001   0.0000
    30 H14        -14.1764   -13.2687    -1.2146 H            1 2IH1001   0.0000
    31 H15        -15.4847   -12.6124    -1.9388 H            1 2IH1001   0.0000
    32 H16        -16.9664   -14.7530    -1.3781 H            1 2IH1001   0.0000
    33 H17        -15.3923   -12.6370     1.7260 H            1 2IH1001   0.0000
    34 H18        -17.1612   -14.2230     2.6722 H            1 2IH1001   0.0000
@<TRIPOS>BOND
     1    1    2       2
     2    1    5       1
     3    2    3       1
     4    3    4       2
     5    4    5       1
     6    5    6       1
     7    6    7       1
     8    7    8       1
     9    8    9       1
    10    9   10       1
    11   10   11       1
    12   11   12       1
    13   12   13       1
    14   12   14       1
    15   13   16       2
    16   14   15       2
    17   15   16       1
    18    1   17       1
    19    2   18       1
    20    4   19       1
    21    6   20       1
    22    6   21       1
    23    7   22       1
    24    7   23       1
    25    8   24       1
    26    8   25       1
    27    9   26       1
    28    9   27       1
    29   10   28       1
    30   10   29       1
    31   11   30       1
    32   11   31       1
    33   13   32       1
    34   14   33       1
    35   15   34       1
@<TRIPOS>SUBSTRUCTURE
     1 2IH1001     1 GROUP             4 A     2IH     0 **** 2IH A1001
