@<TRIPOS>MOLECULE
4nbh_9CA_1_ligand
   22    24     1     0     0
SMALL
NO_CHARGES


@<TRIPOS>ATOM
     1 C9A         -5.2990     2.1760    -6.3400 C.ar         1 9CA503   0.0000
     2 C1          -6.6530     1.8610    -6.2760 C.ar         1 9CA503   0.0000
     3 C2          -7.5450     2.4260    -7.1840 C.ar         1 9CA503   0.0000
     4 C3          -7.0830     3.3070    -8.1580 C.ar         1 9CA503   0.0000
     5 C4          -5.7300     3.6250    -8.2240 C.ar         1 9CA503   0.0000
     6 C4A         -4.8410     3.0590    -7.3140 C.ar         1 9CA503   0.0000
     7 C4B         -3.4720     3.1890    -7.1190 C.ar         1 9CA503   0.0000
     8 C5          -2.4860     3.9260    -7.7690 C.ar         1 9CA503   0.0000
     9 C6          -1.1670     3.8530    -7.3300 C.ar         1 9CA503   0.0000
    10 C7          -0.8390     3.0450    -6.2450 C.ar         1 9CA503   0.0000
    11 C8          -1.8280     2.3090    -5.5970 C.ar         1 9CA503   0.0000
    12 C8A         -3.1480     2.3810    -6.0340 C.ar         1 9CA503   0.0000
    13 N9          -4.2610     1.7940    -5.5990 N.pl3        1 9CA503   0.0000
    14 H1          -6.9859     1.2281    -5.5770 H            1 9CA503   0.0000
    15 H2          -8.5177     2.1988    -7.1364 H            1 9CA503   0.0000
    16 H3          -7.7238     3.7115    -8.8105 H            1 9CA503   0.0000
    17 H4          -5.3971     4.2581    -8.9228 H            1 9CA503   0.0000
    18 H5          -2.7243     4.5056    -8.5483 H            1 9CA503   0.0000
    19 H6          -0.4555     4.3808    -7.7939 H            1 9CA503   0.0000
    20 H7           0.1087     2.9929    -5.9302 H            1 9CA503   0.0000
    21 H8          -1.5901     1.7289    -4.8180 H            1 9CA503   0.0000
    22 H9          -4.3101     1.1589    -4.8282 H            1 9CA503   0.0000
@<TRIPOS>BOND
     1    1    2      ar
     2    1    6      ar
     3    1   13       1
     4    2    3      ar
     5    3    4      ar
     6    4    5      ar
     7    5    6      ar
     8    6    7       1
     9    7    8      ar
    10    7   12      ar
    11    8    9      ar
    12    9   10      ar
    13   10   11      ar
    14   11   12      ar
    15   12   13       1
    16    2   14       1
    17    3   15       1
    18    4   16       1
    19    5   17       1
    20    8   18       1
    21    9   19       1
    22   10   20       1
    23   11   21       1
    24   13   22       1
@<TRIPOS>SUBSTRUCTURE
     1 9CA503      1 GROUP             4 B     9CA     0 **** 9CA B 503
