@<TRIPOS>MOLECULE
4a9s_RU9_1_ligand
   41    44     1     0     0
SMALL
NO_CHARGES


@<TRIPOS>ATOM
     1 C1          34.2940   -33.4430    12.5970 C.2          1 RU91515   0.0000
     2 N1          34.8150   -32.4800    13.5500 N.am         1 RU91515   0.0000
     3 O1          40.6020   -30.7750     2.8740 O.3          1 RU91515   0.0000
     4 C2          34.9550   -33.5930    11.2290 C.ar         1 RU91515   0.0000
     5 C3          35.6430   -32.6000    10.7030 C.ar         1 RU91515   0.0000
     6 N3          37.0970   -31.9200     8.5460 N.pl3        1 RU91515   0.0000
     7 C4          36.3190   -32.7730     9.3420 C.ar         1 RU91515   0.0000
     8 N4          36.9610   -33.7980     7.4190 N.2          1 RU91515   0.0000
     9 C5          37.4750   -32.6220     7.3600 C.2          1 RU91515   0.0000
    10 C6          36.2080   -33.9140     8.7060 C.ar         1 RU91515   0.0000
    11 C7          35.4100   -35.0650     9.3190 C.ar         1 RU91515   0.0000
    12 C8          34.8300   -34.9160    10.4870 C.ar         1 RU91515   0.0000
    13 C9          38.3140   -32.1010     6.1960 C.ar         1 RU91515   0.0000
    14 C10         38.1690   -32.7810     4.8390 C.ar         1 RU91515   0.0000
    15 C11         38.8810   -32.3670     3.8170 C.ar         1 RU91515   0.0000
    16 C12         39.8600   -31.2070     3.9820 C.ar         1 RU91515   0.0000
    17 C13         39.9890   -30.6190     5.1560 C.ar         1 RU91515   0.0000
    18 C14         39.1600   -31.1010     6.3480 C.ar         1 RU91515   0.0000
    19 C15         41.2190   -31.8710     2.2550 C.ar         1 RU91515   0.0000
    20 C16         42.5890   -32.3500     2.7330 C.ar         1 RU91515   0.0000
    21 C17         43.1690   -33.3810     2.1560 C.ar         1 RU91515   0.0000
    22 C18         42.4710   -34.1010     1.0040 C.ar         1 RU91515   0.0000
    23 C19         41.2910   -33.6890     0.5910 C.ar         1 RU91515   0.0000
    24 C20         40.6190   -32.4920     1.2600 C.ar         1 RU91515   0.0000
    25 OAB         33.4430   -34.2030    12.9250 O.2          1 RU91515   0.0000
    26 OAC         40.6500   -34.3550    -0.4590 O.3          1 RU91515   0.0000
    27 H1          34.3835   -32.3802    14.4466 H            1 RU91515   0.0000
    28 H2          35.6054   -31.9164    13.3100 H            1 RU91515   0.0000
    29 H3          35.7232   -31.7326    11.1940 H            1 RU91515   0.0000
    30 H4          35.3298   -35.9331     8.8291 H            1 RU91515   0.0000
    31 H5          34.3080   -35.6689    10.8878 H            1 RU91515   0.0000
    32 H6          37.5310   -33.5429     4.7276 H            1 RU91515   0.0000
    33 H7          38.7819   -32.8128     2.9274 H            1 RU91515   0.0000
    34 H8          40.6286   -29.8583     5.2667 H            1 RU91515   0.0000
    35 H9          39.2594   -30.6591     7.2396 H            1 RU91515   0.0000
    36 H10         43.0465   -31.8785     3.4869 H            1 RU91515   0.0000
    37 H11         44.0654   -33.6925     2.4714 H            1 RU91515   0.0000
    38 H12         42.9099   -34.8845     0.5640 H            1 RU91515   0.0000
    39 H13         39.7236   -32.1795     0.9429 H            1 RU91515   0.0000
    40 HAC         41.0883   -35.1418    -0.8937 H            1 RU91515   0.0000
    41 H15         37.3457   -30.9779     8.7707 H            1 RU91515   0.0000
@<TRIPOS>BOND
     1    1    2      am
     2    1    4       1
     3    1   25       2
     4    3   16       1
     5    3   19       1
     6    4    5      ar
     7    4   12      ar
     8    5    7      ar
     9    6    7       1
    10    6    9       1
    11    7   10      ar
    12    8    9       2
    13    8   10       1
    14    9   13       1
    15   10   11      ar
    16   11   12      ar
    17   13   14      ar
    18   13   18      ar
    19   14   15      ar
    20   15   16      ar
    21   16   17      ar
    22   17   18      ar
    23   19   20      ar
    24   19   24      ar
    25   20   21      ar
    26   21   22      ar
    27   22   23      ar
    28   23   24      ar
    29   23   26       1
    30    2   27       1
    31    2   28       1
    32    5   29       1
    33    6   41       1
    34   11   30       1
    35   12   31       1
    36   14   32       1
    37   15   33       1
    38   17   34       1
    39   18   35       1
    40   20   36       1
    41   21   37       1
    42   22   38       1
    43   24   39       1
    44   26   40       1
@<TRIPOS>SUBSTRUCTURE
     1 RU91515     1 GROUP             4 A     RU9     0 **** RU9 A1515
