@<TRIPOS>MOLECULE
4m1e_6PC_2_ligand
   13    13     1     0     0
SMALL
NO_CHARGES


@<TRIPOS>ATOM
     1 C1           2.6010   -37.1640    28.9320 C.ar         1 6PC402   0.0000
     2 C3           0.2760   -36.9790    28.5860 C.ar         1 6PC402   0.0000
     3 C4           0.0340   -37.8500    29.6540 C.ar         1 6PC402   0.0000
     4 C2           3.9840   -36.7460    28.5220 C.2          1 6PC402   0.0000
     5 C5           1.1040   -38.3880    30.3650 C.ar         1 6PC402   0.0000
     6 C6           2.4030   -38.0360    29.9970 C.ar         1 6PC402   0.0000
     7 O1           4.9270   -37.5680    28.3960 O.co2        1 6PC402   0.0000
     8 O2           4.1270   -35.5240    28.3470 O.co2        1 6PC402  -1.0000
     9 N2           1.5350   -36.6470    28.2590 N.ar         1 6PC402   0.0000
    10 H1          -0.4905   -36.6030    28.0652 H            1 6PC402   0.0000
    11 H2          -0.9046   -38.0856    29.9061 H            1 6PC402   0.0000
    12 H3           0.9439   -39.0161    31.1265 H            1 6PC402   0.0000
    13 H4           3.1860   -38.4081    30.4955 H            1 6PC402   0.0000
@<TRIPOS>BOND
     1    1    4       1
     2    1    6      ar
     3    1    9      ar
     4    2    3      ar
     5    2    9      ar
     6    3    5      ar
     7    4    7      ar
     8    4    8      ar
     9    5    6      ar
    10    2   10       1
    11    3   11       1
    12    5   12       1
    13    6   13       1
@<TRIPOS>SUBSTRUCTURE
     1 6PC402      1 GROUP             4 A     6PC     0 **** 6PC A 402
