@<TRIPOS>MOLECULE
3edj_BCD_2_ligand
  147   154     1     0     0
SMALL
NO_CHARGES


@<TRIPOS>ATOM
     1 C11        100.1550    34.4620    79.9890 C.3          1 BCD700   0.0000
     2 C21         98.8130    33.7580    80.2110 C.3          1 BCD700   0.0000
     3 O21         98.3680    33.2730    78.9310 O.3          1 BCD700   0.0000
     4 C31         97.8070    34.6840    80.8990 C.3          1 BCD700   0.0000
     5 O31         96.6170    33.9430    81.1550 O.3          1 BCD700   0.0000
     6 C41         98.3860    35.3050    82.1910 C.3          1 BCD700   0.0000
     7 O41         97.5190    36.1820    82.9390 O.3          1 BCD700   0.0000
     8 C51         99.6660    36.0360    81.8170 C.3          1 BCD700   0.0000
     9 O51        100.5680    35.0970    81.2030 O.3          1 BCD700   0.0000
    10 C61        100.3690    36.6140    83.0370 C.3          1 BCD700   0.0000
    11 O61        101.2890    37.6310    82.5710 O.3          1 BCD700   0.0000
    12 C12         96.6990    35.6670    84.0140 C.3          1 BCD700   0.0000
    13 C22         96.3840    36.7870    85.0120 C.3          1 BCD700   0.0000
    14 O22         95.5460    37.8490    84.5210 O.3          1 BCD700   0.0000
    15 C32         97.7020    37.3040    85.5720 C.3          1 BCD700   0.0000
    16 O32         97.5190    38.4690    86.3980 O.3          1 BCD700   0.0000
    17 C42         98.2240    36.1630    86.4340 C.3          1 BCD700   0.0000
    18 O42         99.5080    36.5790    86.9150 O.3          1 BCD700   0.0000
    19 C52         98.3420    34.8310    85.6750 C.3          1 BCD700   0.0000
    20 O52         97.2420    34.5770    84.7730 O.3          1 BCD700   0.0000
    21 C62         98.4960    33.6690    86.6510 C.3          1 BCD700   0.0000
    22 O62         97.3020    33.4490    87.4160 O.3          1 BCD700   0.0000
    23 C13         99.6340    36.4620    88.3300 C.3          1 BCD700   0.0000
    24 C23        100.0610    37.7960    88.9530 C.3          1 BCD700   0.0000
    25 O23         99.1730    38.8520    88.5990 O.3          1 BCD700   0.0000
    26 C33        101.4540    38.1420    88.4730 C.3          1 BCD700   0.0000
    27 O33        101.9010    39.3910    89.0280 O.3          1 BCD700   0.0000
    28 C43        102.3870    37.0230    88.9040 C.3          1 BCD700   0.0000
    29 O43        103.6960    37.4190    88.5320 O.3          1 BCD700   0.0000
    30 C53        101.9590    35.7160    88.2150 C.3          1 BCD700   0.0000
    31 O53        100.6120    35.4370    88.5750 O.3          1 BCD700   0.0000
    32 C63        102.7780    34.5210    88.7000 C.3          1 BCD700   0.0000
    33 O63        102.5620    33.4280    87.7970 O.3          1 BCD700   0.0000
    34 C14        104.6190    37.5910    89.6190 C.3          1 BCD700   0.0000
    35 C24        105.4850    38.8190    89.3380 C.3          1 BCD700   0.0000
    36 O24        104.6670    39.9970    89.3130 O.3          1 BCD700   0.0000
    37 C34        106.2050    38.6260    88.0040 C.3          1 BCD700   0.0000
    38 O34        107.0530    39.7610    87.7560 O.3          1 BCD700   0.0000
    39 C44        107.0270    37.3240    88.0050 C.3          1 BCD700   0.0000
    40 O44        107.4810    37.0790    86.6800 O.3          1 BCD700   0.0000
    41 C54        106.1920    36.1250    88.4910 C.3          1 BCD700   0.0000
    42 O54        105.4920    36.4480    89.7040 O.3          1 BCD700   0.0000
    43 C64        107.0240    34.8560    88.7160 C.3          1 BCD700   0.0000
    44 O64        106.1800    33.8340    89.2460 O.3          1 BCD700   0.0000
    45 C15        108.8610    36.7090    86.5490 C.3          1 BCD700   0.0000
    46 C25        109.5730    37.7010    85.6300 C.3          1 BCD700   0.0000
    47 O25        109.5410    38.9930    86.2430 O.3          1 BCD700   0.0000
    48 C35        108.8850    37.6940    84.2580 C.3          1 BCD700   0.0000
    49 O35        109.4960    38.6170    83.3510 O.3          1 BCD700   0.0000
    50 C45        108.8950    36.2950    83.6380 C.3          1 BCD700   0.0000
    51 O45        108.0340    36.3050    82.4920 O.3          1 BCD700   0.0000
    52 C55        108.3740    35.2610    84.6480 C.3          1 BCD700   0.0000
    53 O55        108.9420    35.4000    85.9690 O.3          1 BCD700   0.0000
    54 C65        108.6390    33.8420    84.1760 C.3          1 BCD700   0.0000
    55 O65        107.8650    33.0140    85.0370 O.3          1 BCD700   0.0000
    56 C16        108.6280    35.9430    81.2420 C.3          1 BCD700   0.0000
    57 C26        108.3730    37.0560    80.2160 C.3          1 BCD700   0.0000
    58 O26        108.8640    38.3000    80.7140 O.3          1 BCD700   0.0000
    59 C36        106.8820    37.2170    79.9320 C.3          1 BCD700   0.0000
    60 O36        106.6870    38.2020    78.9030 O.3          1 BCD700   0.0000
    61 C46        106.2460    35.8910    79.5130 C.3          1 BCD700   0.0000
    62 O46        104.8220    36.0450    79.4550 O.3          1 BCD700   0.0000
    63 C56        106.6080    34.7990    80.5330 C.3          1 BCD700   0.0000
    64 O56        108.0380    34.7220    80.7580 O.3          1 BCD700   0.0000
    65 C66        106.0530    33.4360    80.1300 C.3          1 BCD700   0.0000
    66 O66        106.9470    32.8160    79.1980 O.3          1 BCD700   0.0000
    67 C17        104.2650    36.3940    78.1750 C.3          1 BCD700   0.0000
    68 C27        103.2310    37.5090    78.3710 C.3          1 BCD700   0.0000
    69 O27        103.7570    38.5950    79.1390 O.3          1 BCD700   0.0000
    70 C37        101.9720    36.9970    79.0630 C.3          1 BCD700   0.0000
    71 O37        101.0520    38.0880    79.1480 O.3          1 BCD700   0.0000
    72 C47        101.3540    35.8100    78.3070 C.3          1 BCD700   0.0000
    73 O47        100.0930    35.4080    78.9100 O.3          1 BCD700   0.0000
    74 C57        102.4410    34.7180    78.1970 C.3          1 BCD700   0.0000
    75 O57        103.6280    35.2440    77.5630 O.3          1 BCD700   0.0000
    76 C67        102.0030    33.4810    77.4090 C.3          1 BCD700   0.0000
    77 O67        101.7770    33.8680    76.0480 O.3          1 BCD700   0.0000
    78 H1         100.8352    33.7675    79.7546 H            1 BCD700   0.0000
    79 H2          98.9690    32.9697    80.8062 H            1 BCD700   0.0000
    80 H3          97.3683    33.2600    78.9086 H            1 BCD700   0.0000
    81 H4          97.5833    35.4268    80.2680 H            1 BCD700   0.0000
    82 H5          95.9471    34.5334    81.6052 H            1 BCD700   0.0000
    83 H6          98.6400    34.5504    82.7961 H            1 BCD700   0.0000
    84 H7          99.4563    36.7705    81.1716 H            1 BCD700   0.0000
    85 H8         100.8710    35.8931    83.5148 H            1 BCD700   0.0000
    86 H9          99.6976    37.0198    83.6571 H            1 BCD700   0.0000
    87 H10        101.2337    37.6993    81.5749 H            1 BCD700   0.0000
    88 H11         95.8338    35.3605    83.6171 H            1 BCD700   0.0000
    89 H12         95.8943    36.3635    85.7741 H            1 BCD700   0.0000
    90 H13         96.1167    38.5658    84.1203 H            1 BCD700   0.0000
    91 H14         98.3425    37.5007    84.8296 H            1 BCD700   0.0000
    92 H15         97.5812    39.2915    85.8327 H            1 BCD700   0.0000
    93 H16         97.6103    36.0387    87.2137 H            1 BCD700   0.0000
    94 H17         99.1763    34.8727    85.1253 H            1 BCD700   0.0000
    95 H18         99.2486    33.8711    87.2777 H            1 BCD700   0.0000
    96 H19         98.7062    32.8390    86.1344 H            1 BCD700   0.0000
    97 H20         96.5440    33.2399    86.7981 H            1 BCD700   0.0000
    98 H21         98.7562    36.1814    88.7183 H            1 BCD700   0.0000
    99 H22        100.0738    37.7012    89.9484 H            1 BCD700   0.0000
   100 H23         98.7800    38.6690    87.6979 H            1 BCD700   0.0000
   101 H24        101.4532    38.2054    87.4750 H            1 BCD700   0.0000
   102 H25        102.5283    39.8347    88.3880 H            1 BCD700   0.0000
   103 H26        102.3398    36.9102    89.8965 H            1 BCD700   0.0000
   104 H27        102.0383    35.8079    87.2224 H            1 BCD700   0.0000
   105 H28        102.4849    34.2618    89.6203 H            1 BCD700   0.0000
   106 H29        103.7488    34.7604    88.7144 H            1 BCD700   0.0000
   107 H30        102.1698    32.6555    88.2964 H            1 BCD700   0.0000
   108 H31        104.1214    37.7094    90.4783 H            1 BCD700   0.0000
   109 H32        106.1656    38.9106    90.0649 H            1 BCD700   0.0000
   110 H33        104.3396    40.1558    88.3815 H            1 BCD700   0.0000
   111 H34        105.5213    38.5722    87.2762 H            1 BCD700   0.0000
   112 H35        107.8440    39.4743    87.2156 H            1 BCD700   0.0000
   113 H36        107.8180    37.4370    88.6062 H            1 BCD700   0.0000
   114 H37        105.5095    35.9228    87.7886 H            1 BCD700   0.0000
   115 H38        107.7623    35.0495    89.3621 H            1 BCD700   0.0000
   116 H39        107.4132    34.5518    87.8465 H            1 BCD700   0.0000
   117 H40        105.4488    34.2519    89.7852 H            1 BCD700   0.0000
   118 H41        109.2977    36.7079    87.4486 H            1 BCD700   0.0000
   119 H42        110.5252    37.4166    85.5186 H            1 BCD700   0.0000
   120 H43        110.3503    39.1089    86.8188 H            1 BCD700   0.0000
   121 H44        107.9324    37.9697    84.3869 H            1 BCD700   0.0000
   122 H45        109.3985    38.2786    82.4150 H            1 BCD700   0.0000
   123 H46        109.8251    36.0558    83.3594 H            1 BCD700   0.0000
   124 H47        107.3840    35.3791    84.7254 H            1 BCD700   0.0000
   125 H48        109.6109    33.6209    84.2568 H            1 BCD700   0.0000
   126 H49        108.3491    33.7282    83.2257 H            1 BCD700   0.0000
   127 H50        107.7805    33.4511    85.9325 H            1 BCD700   0.0000
   128 H51        109.6126    35.8159    81.3621 H            1 BCD700   0.0000
   129 H52        108.8474    36.8328    79.3645 H            1 BCD700   0.0000
   130 H53        109.8170    38.4180    80.4348 H            1 BCD700   0.0000
   131 H54        106.4321    37.5356    80.7663 H            1 BCD700   0.0000
   132 H55        107.1532    37.9089    78.0683 H            1 BCD700   0.0000
   133 H56        106.5885    35.6291    78.6107 H            1 BCD700   0.0000
   134 H57        106.1821    35.0496    81.4024 H            1 BCD700   0.0000
   135 H58        105.1558    33.5535    79.7043 H            1 BCD700   0.0000
   136 H59        105.9638    32.8587    80.9416 H            1 BCD700   0.0000
   137 H60        106.5849    31.9224    78.9327 H            1 BCD700   0.0000
   138 H61        104.9953    36.7234    77.5766 H            1 BCD700   0.0000
   139 H62        102.9730    37.8586    77.4703 H            1 BCD700   0.0000
   140 H63        104.7427    38.6651    78.9856 H            1 BCD700   0.0000
   141 H64        102.2095    36.7020    79.9885 H            1 BCD700   0.0000
   142 H65        100.2117    37.8544    78.6587 H            1 BCD700   0.0000
   143 H66        101.1525    36.1223    77.3786 H            1 BCD700   0.0000
   144 H67        102.6850    34.4274    79.1222 H            1 BCD700   0.0000
   145 H68        101.1594    33.1128    77.7999 H            1 BCD700   0.0000
   146 H69        102.7198    32.7848    77.4475 H            1 BCD700   0.0000
   147 H70        102.3783    34.6322    75.8145 H            1 BCD700   0.0000
@<TRIPOS>BOND
     1    1    2       1
     2    1    9       1
     3    1   73       1
     4    2    3       1
     5    2    4       1
     6    4    5       1
     7    4    6       1
     8    6    7       1
     9    6    8       1
    10    7   12       1
    11    8    9       1
    12    8   10       1
    13   10   11       1
    14   12   13       1
    15   12   20       1
    16   13   14       1
    17   13   15       1
    18   15   16       1
    19   15   17       1
    20   17   18       1
    21   17   19       1
    22   18   23       1
    23   19   20       1
    24   19   21       1
    25   21   22       1
    26   23   24       1
    27   23   31       1
    28   24   25       1
    29   24   26       1
    30   26   27       1
    31   26   28       1
    32   28   29       1
    33   28   30       1
    34   29   34       1
    35   30   31       1
    36   30   32       1
    37   32   33       1
    38   34   35       1
    39   34   42       1
    40   35   36       1
    41   35   37       1
    42   37   38       1
    43   37   39       1
    44   39   40       1
    45   39   41       1
    46   40   45       1
    47   41   42       1
    48   41   43       1
    49   43   44       1
    50   45   46       1
    51   45   53       1
    52   46   47       1
    53   46   48       1
    54   48   49       1
    55   48   50       1
    56   50   51       1
    57   50   52       1
    58   51   56       1
    59   52   53       1
    60   52   54       1
    61   54   55       1
    62   56   57       1
    63   56   64       1
    64   57   58       1
    65   57   59       1
    66   59   60       1
    67   59   61       1
    68   61   62       1
    69   61   63       1
    70   62   67       1
    71   63   64       1
    72   63   65       1
    73   65   66       1
    74   67   68       1
    75   67   75       1
    76   68   69       1
    77   68   70       1
    78   70   71       1
    79   70   72       1
    80   72   73       1
    81   72   74       1
    82   74   75       1
    83   74   76       1
    84   76   77       1
    85    1   78       1
    86    2   79       1
    87    3   80       1
    88    4   81       1
    89    5   82       1
    90    6   83       1
    91    8   84       1
    92   10   85       1
    93   10   86       1
    94   11   87       1
    95   12   88       1
    96   13   89       1
    97   14   90       1
    98   15   91       1
    99   16   92       1
   100   17   93       1
   101   19   94       1
   102   21   95       1
   103   21   96       1
   104   22   97       1
   105   23   98       1
   106   24   99       1
   107   25  100       1
   108   26  101       1
   109   27  102       1
   110   28  103       1
   111   30  104       1
   112   32  105       1
   113   32  106       1
   114   33  107       1
   115   34  108       1
   116   35  109       1
   117   36  110       1
   118   37  111       1
   119   38  112       1
   120   39  113       1
   121   41  114       1
   122   43  115       1
   123   43  116       1
   124   44  117       1
   125   45  118       1
   126   46  119       1
   127   47  120       1
   128   48  121       1
   129   49  122       1
   130   50  123       1
   131   52  124       1
   132   54  125       1
   133   54  126       1
   134   55  127       1
   135   56  128       1
   136   57  129       1
   137   58  130       1
   138   59  131       1
   139   60  132       1
   140   61  133       1
   141   63  134       1
   142   65  135       1
   143   65  136       1
   144   66  137       1
   145   67  138       1
   146   68  139       1
   147   69  140       1
   148   70  141       1
   149   71  142       1
   150   72  143       1
   151   74  144       1
   152   76  145       1
   153   76  146       1
   154   77  147       1
@<TRIPOS>SUBSTRUCTURE
     1 BCD700      1 GROUP             4 B     BCD     0 **** BCD B 700
