@<TRIPOS>MOLECULE
1e8x_ATP_1_ligand
   43    45     1     0     0
SMALL
NO_CHARGES


@<TRIPOS>ATOM
     1 PG          28.8760    68.0060    19.6240 P.3          1 ATP3000   0.0000
     2 O1G         28.8270    69.0270    18.5660 O.co2        1 ATP3000   0.0000
     3 O2G         30.1800    67.3480    19.7720 O.co2        1 ATP3000  -1.0000
     4 O3G         28.3670    68.5560    20.9260 O.co2        1 ATP3000  -1.0000
     5 PB          27.1360    66.1470    17.7080 P.3          1 ATP3000   0.0000
     6 O1B         27.8410    64.9100    17.2780 O.co2        1 ATP3000   0.0000
     7 O2B         27.0630    67.2380    16.6990 O.co2        1 ATP3000  -1.0000
     8 O3B         27.8390    66.7170    19.1580 O.3          1 ATP3000   0.0000
     9 PA          24.9990    64.2380    18.5580 P.3          1 ATP3000   0.0000
    10 O1A         25.0720    63.4100    17.3430 O.co2        1 ATP3000   0.0000
    11 O2A         25.4870    63.6900    19.8290 O.co2        1 ATP3000  -1.0000
    12 O3A         25.7000    65.6460    18.1250 O.3          1 ATP3000   0.0000
    13 O5'         23.5270    64.6650    18.7130 O.3          1 ATP3000   0.0000
    14 C5'         23.0840    65.4600    19.7960 C.3          1 ATP3000   0.0000
    15 C4'         21.6360    65.6730    19.5980 C.3          1 ATP3000   0.0000
    16 O4'         21.0080    64.3710    19.5460 O.3          1 ATP3000   0.0000
    17 C3'         20.9990    66.4810    20.6920 C.3          1 ATP3000   0.0000
    18 O3'         20.1740    67.4840    20.0240 O.3          1 ATP3000   0.0000
    19 C2'         20.2100    65.4620    21.4890 C.3          1 ATP3000   0.0000
    20 O2'         18.8930    65.9180    21.7630 O.3          1 ATP3000   0.0000
    21 C1'         20.1200    64.1390    20.6560 C.3          1 ATP3000   0.0000
    22 N9          20.6050    62.9310    21.4260 N.pl3        1 ATP3000   0.0000
    23 C8          21.8720    62.3620    21.4560 C.2          1 ATP3000   0.0000
    24 N7          22.0100    61.3210    22.2300 N.2          1 ATP3000   0.0000
    25 C5          20.7370    61.1940    22.7590 C.ar         1 ATP3000   0.0000
    26 C6          20.1940    60.2650    23.6670 C.ar         1 ATP3000   0.0000
    27 N6          20.9530    59.3090    24.1760 N.pl3        1 ATP3000   0.0000
    28 N1          18.8800    60.3790    24.0160 N.ar         1 ATP3000   0.0000
    29 C2          18.1460    61.3570    23.4830 C.ar         1 ATP3000   0.0000
    30 N3          18.5390    62.3050    22.5990 N.ar         1 ATP3000   0.0000
    31 C4          19.8670    62.1590    22.2820 C.ar         1 ATP3000   0.0000
    32 H5'1        23.5645    66.3370    19.7996 H            1 ATP3000   0.0000
    33 H5'2        23.2480    64.9865    20.6614 H            1 ATP3000   0.0000
    34 H4'         21.4924    66.1383    18.7246 H            1 ATP3000   0.0000
    35 H3'         21.6949    66.9166    21.2629 H            1 ATP3000   0.0000
    36 H5          20.4881    68.3982    20.2800 H            1 ATP3000   0.0000
    37 H2'         20.6825    65.2786    22.3510 H            1 ATP3000   0.0000
    38 H7          18.7656    66.8269    21.3660 H            1 ATP3000   0.0000
    39 H1'         19.1855    63.9938    20.3311 H            1 ATP3000   0.0000
    40 H9          22.6312    62.7277    20.9176 H            1 ATP3000   0.0000
    41 H10         20.5634    58.6512    24.8206 H            1 ATP3000   0.0000
    42 H11         21.9165    59.2440    23.9163 H            1 ATP3000   0.0000
    43 H12         17.1892    61.3949    23.7711 H            1 ATP3000   0.0000
@<TRIPOS>BOND
     1    1    2      ar
     2    1    3      ar
     3    1    4      ar
     4    1    8       1
     5    5    6      ar
     6    5    7      ar
     7    5    8       1
     8    5   12       1
     9    9   10      ar
    10    9   11      ar
    11    9   12       1
    12    9   13       1
    13   13   14       1
    14   14   15       1
    15   15   16       1
    16   15   17       1
    17   16   21       1
    18   17   18       1
    19   17   19       1
    20   19   20       1
    21   19   21       1
    22   21   22       1
    23   22   23       1
    24   22   31       1
    25   23   24       2
    26   24   25       1
    27   25   26      ar
    28   25   31      ar
    29   26   27       1
    30   26   28      ar
    31   28   29      ar
    32   29   30      ar
    33   30   31      ar
    34   29   43       1
    35   27   42       1
    36   27   41       1
    37   23   40       1
    38   14   32       1
    39   14   33       1
    40   15   34       1
    41   17   35       1
    42   18   36       1
    43   19   37       1
    44   20   38       1
    45   21   39       1
@<TRIPOS>SUBSTRUCTURE
     1 ATP3000     1 GROUP             4 A     ATP     0 **** ATP A3000
