@<TRIPOS>MOLECULE
2pnc_CLU_1_ligand
   23    24     1     0     0
SMALL
NO_CHARGES


@<TRIPOS>ATOM
     1 CL1         37.0790    -8.9240    43.0460 Cl           1 CLU808   0.0000
     2 CAM         33.3700   -10.2680    42.1170 C.ar         1 CLU808   0.0000
     3 CAE         32.8120    -9.1890    41.4380 C.ar         1 CLU808   0.0000
     4 CAC         33.5550    -8.0300    41.2450 C.ar         1 CLU808   0.0000
     5 CAD         34.8510    -7.9540    41.7370 C.ar         1 CLU808   0.0000
     6 CAN         34.6660   -10.1930    42.6000 C.ar         1 CLU808   0.0000
     7 CAL         35.4040    -9.0350    42.4140 C.ar         1 CLU808   0.0000
     8 CL2         32.4050   -11.7610    42.3600 Cl           1 CLU808   0.0000
     9 NAJ         35.1980   -11.2170    43.2650 N.pl3        1 CLU808   0.0000
    10 CAK         36.0320   -12.2400    42.8240 C.2          1 CLU808   0.0000
    11 NAI         36.4350   -12.3300    41.5580 N.2          1 CLU808   0.0000
    12 CAG         37.2420   -13.5250    41.3250 C.3          1 CLU808   0.0000
    13 CAF         37.7120   -13.8530    42.7540 C.3          1 CLU808   0.0000
    14 NAH         36.5950   -13.3060    43.5130 N.pl3        1 CLU808   0.0000
    15 HAE         31.8767    -9.2474    41.0890 H            1 CLU808   0.0000
    16 HAC         33.1578    -7.2546    40.7541 H            1 CLU808   0.0000
    17 HAD         35.3874    -7.1206    41.6042 H            1 CLU808   0.0000
    18 HAJ         34.9603   -11.2571    44.2355 H            1 CLU808   0.0000
    19 HAG1        38.0149   -13.3329    40.7202 H            1 CLU808   0.0000
    20 HAG2        36.6941   -14.2677    40.9401 H            1 CLU808   0.0000
    21 HAF1        38.5728   -13.3954    42.9768 H            1 CLU808   0.0000
    22 HAF2        37.8116   -14.8378    42.8961 H            1 CLU808   0.0000
    23 HAH         36.2805   -13.6476    44.3987 H            1 CLU808   0.0000
@<TRIPOS>BOND
     1    1    7       1
     2    2    3      ar
     3    2    6      ar
     4    2    8       1
     5    3    4      ar
     6    4    5      ar
     7    5    7      ar
     8    6    7      ar
     9    6    9       1
    10    9   10       1
    11   10   11       2
    12   10   14       1
    13   11   12       1
    14   12   13       1
    15   13   14       1
    16    3   15       1
    17    4   16       1
    18    5   17       1
    19    9   18       1
    20   13   22       1
    21   12   19       1
    22   12   20       1
    23   13   21       1
    24   14   23       1
@<TRIPOS>SUBSTRUCTURE
     1 CLU808      1 GROUP             4 A     CLU     0 **** CLU A 808
