@<TRIPOS>MOLECULE
4u8k_FDA_4_ligand
   84    89     1     0     0
SMALL
NO_CHARGES


@<TRIPOS>ATOM
     1 PA          34.3620    58.6840   228.3920 P.3          1 FDA601   0.0000
     2 O1A         33.9990    57.3480   227.6920 O.co2        1 FDA601   0.0000
     3 O2A         35.7510    59.0040   228.6390 O.co2        1 FDA601  -1.0000
     4 O5B         33.8820    58.9030   229.7760 O.3          1 FDA601   0.0000
     5 C5B         32.5480    58.5220   230.0620 C.3          1 FDA601   0.0000
     6 C4B         32.3290    58.1710   231.5360 C.3          1 FDA601   0.0000
     7 O4B         30.9630    57.9650   231.8150 O.3          1 FDA601   0.0000
     8 C3B         33.0310    56.9140   231.9760 C.3          1 FDA601   0.0000
     9 O3B         33.8380    57.1700   233.0480 O.3          1 FDA601   0.0000
    10 C2B         31.9810    55.9490   232.3610 C.3          1 FDA601   0.0000
    11 O2B         32.3410    55.2550   233.4980 O.3          1 FDA601   0.0000
    12 C1B         30.8160    56.8310   232.6180 C.3          1 FDA601   0.0000
    13 N9A         29.5690    56.1360   232.3850 N.pl3        1 FDA601   0.0000
    14 C8A         29.1170    55.4520   231.2740 C.2          1 FDA601   0.0000
    15 N7A         27.8850    54.9700   231.5270 N.2          1 FDA601   0.0000
    16 C5A         27.5020    55.3240   232.8200 C.ar         1 FDA601   0.0000
    17 C6A         26.3690    55.1120   233.5990 C.ar         1 FDA601   0.0000
    18 N6A         25.2560    54.3540   233.0900 N.pl3        1 FDA601   0.0000
    19 N1A         26.3160    55.6080   234.8450 N.ar         1 FDA601   0.0000
    20 C2A         27.3410    56.3280   235.3790 C.ar         1 FDA601   0.0000
    21 N3A         28.4710    56.5610   234.6470 N.ar         1 FDA601   0.0000
    22 C4A         28.5750    56.0760   233.3880 C.ar         1 FDA601   0.0000
    23 N1          42.4360    61.9720   223.6280 N.2          1 FDA601   0.0000
    24 C2          43.5760    62.8390   223.5070 C.2          1 FDA601   0.0000
    25 O2          43.5430    64.0800   224.1040 O.2          1 FDA601   0.0000
    26 N3          44.7260    62.4410   222.7860 N.pl3        1 FDA601   0.0000
    27 C4          44.7590    61.1760   222.1810 C.2          1 FDA601   0.0000
    28 O4          45.8600    60.7650   221.4820 O.2          1 FDA601   0.0000
    29 C4X         43.5850    60.2720   222.2990 C.2          1 FDA601   0.0000
    30 N5          43.6110    59.0030   221.6110 N.2          1 FDA601   0.0000
    31 C5X         42.5420    58.0600   221.9140 C.ar         1 FDA601   0.0000
    32 C6          42.6670    56.6680   221.4260 C.ar         1 FDA601   0.0000
    33 C7          41.6280    55.7480   221.6700 C.ar         1 FDA601   0.0000
    34 C7M         41.7670    54.3290   221.1670 C.3          1 FDA601   0.0000
    35 C8          40.4580    56.1530   222.3810 C.ar         1 FDA601   0.0000
    36 C8M         39.3440    55.1560   222.6400 C.3          1 FDA601   0.0000
    37 C9          40.3370    57.4840   222.8460 C.ar         1 FDA601   0.0000
    38 C9A         41.4340    58.4460   222.5920 C.ar         1 FDA601   0.0000
    39 N10         41.3210    59.8000   223.0990 N.pl3        1 FDA601   0.0000
    40 C10         42.4670    60.6670   223.0040 C.2          1 FDA601   0.0000
    41 C1'         39.9890    60.3360   223.4120 C.3          1 FDA601   0.0000
    42 C2'         39.7530    60.4660   224.9050 C.3          1 FDA601   0.0000
    43 O2'         39.8720    59.2390   225.5420 O.3          1 FDA601   0.0000
    44 C3'         38.3500    61.0300   225.0800 C.3          1 FDA601   0.0000
    45 O3'         38.3380    62.3200   224.5950 O.3          1 FDA601   0.0000
    46 C4'         37.7680    61.0990   226.4830 C.3          1 FDA601   0.0000
    47 O4'         37.9540    59.9300   227.2200 O.3          1 FDA601   0.0000
    48 C5'         36.2820    61.3900   226.3440 C.3          1 FDA601   0.0000
    49 O5'         35.6830    61.6270   227.5940 O.3          1 FDA601   0.0000
    50 P           34.1020    61.4780   227.6960 P.3          1 FDA601   0.0000
    51 O1P         33.2440    62.2520   226.6110 O.co2        1 FDA601   0.0000
    52 O2P         33.9960    61.8730   229.2300 O.co2        1 FDA601  -1.0000
    53 O3P         33.8140    59.8750   227.6880 O.3          1 FDA601   0.0000
    54 H5B1        32.3189    57.7226   229.5066 H            1 FDA601   0.0000
    55 H5B2        31.9416    59.2799   229.8214 H            1 FDA601   0.0000
    56 H4B         32.6571    58.9315   232.0964 H            1 FDA601   0.0000
    57 H3B         33.5734    56.5446   231.2215 H            1 FDA601   0.0000
    58 H5          33.2855    57.5169   233.8059 H            1 FDA601   0.0000
    59 H2B         31.7877    55.3188   231.6090 H            1 FDA601   0.0000
    60 H7          32.0168    55.7474   234.3057 H            1 FDA601   0.0000
    61 H1B         30.8429    57.1175   233.5757 H            1 FDA601   0.0000
    62 H8A         29.6227    55.3336   230.4195 H            1 FDA601   0.0000
    63 H6A1        24.4474    54.2088   233.6602 H            1 FDA601   0.0000
    64 H6A2        25.2915    53.9726   232.1663 H            1 FDA601   0.0000
    65 H2A         27.2666    56.6872   236.3093 H            1 FDA601   0.0000
    66 H13         45.5098    63.0571   222.7082 H            1 FDA601   0.0000
    67 H14         43.4844    56.3821   220.9259 H            1 FDA601   0.0000
    68 H7M1        40.9531    53.8051   221.4182 H            1 FDA601   0.0000
    69 H7M2        41.8648    54.3362   220.1718 H            1 FDA601   0.0000
    70 H7M3        42.5750    53.9072   221.5783 H            1 FDA601   0.0000
    71 H8M1        38.6069    55.6038   223.1462 H            1 FDA601   0.0000
    72 H8M2        38.9912    54.8164   221.7681 H            1 FDA601   0.0000
    73 H8M3        39.6997    54.3907   223.1765 H            1 FDA601   0.0000
    74 H21         39.5179    57.7725   223.3418 H            1 FDA601   0.0000
    75 H1'1        39.2981    59.7221   223.0301 H            1 FDA601   0.0000
    76 H1'2        39.9001    61.2397   222.9931 H            1 FDA601   0.0000
    77 H2'         40.4177    61.1056   225.2911 H            1 FDA601   0.0000
    78 H25         39.2770    59.2215   226.3455 H            1 FDA601   0.0000
    79 H3'         37.7285    60.4853   224.5170 H            1 FDA601   0.0000
    80 H27         38.0987    62.3089   223.6241 H            1 FDA601   0.0000
    81 H4'         38.1987    61.8578   226.9716 H            1 FDA601   0.0000
    82 H29         37.0643    59.5559   227.4819 H            1 FDA601   0.0000
    83 H5'1        35.8362    60.6050   225.9139 H            1 FDA601   0.0000
    84 H5'2        36.1619    62.1985   225.7678 H            1 FDA601   0.0000
@<TRIPOS>BOND
     1    1    2      ar
     2    1    3      ar
     3    1    4       1
     4    1   53       1
     5    4    5       1
     6    5    6       1
     7    6    7       1
     8    6    8       1
     9    7   12       1
    10    8    9       1
    11    8   10       1
    12   10   11       1
    13   10   12       1
    14   12   13       1
    15   13   14       1
    16   13   22       1
    17   14   15       2
    18   15   16       1
    19   16   17      ar
    20   16   22      ar
    21   17   18       1
    22   17   19      ar
    23   19   20      ar
    24   20   21      ar
    25   21   22      ar
    26   23   24       1
    27   23   40       2
    28   24   25       2
    29   24   26       1
    30   26   27       1
    31   27   28       2
    32   27   29       1
    33   29   30       2
    34   29   40       1
    35   30   31       1
    36   31   32      ar
    37   31   38      ar
    38   32   33      ar
    39   33   34       1
    40   33   35      ar
    41   35   36       1
    42   35   37      ar
    43   37   38      ar
    44   38   39       1
    45   39   40       1
    46   39   41       1
    47   41   42       1
    48   42   43       1
    49   42   44       1
    50   44   45       1
    51   44   46       1
    52   46   47       1
    53   46   48       1
    54   48   49       1
    55   49   50       1
    56   50   51      ar
    57   50   52      ar
    58   50   53       1
    59   48   84       1
    60    5   54       1
    61    5   55       1
    62    6   56       1
    63    8   57       1
    64    9   58       1
    65   10   59       1
    66   11   60       1
    67   12   61       1
    68   14   62       1
    69   18   63       1
    70   18   64       1
    71   20   65       1
    72   26   66       1
    73   32   67       1
    74   34   68       1
    75   34   69       1
    76   34   70       1
    77   36   71       1
    78   36   72       1
    79   36   73       1
    80   37   74       1
    81   41   75       1
    82   41   76       1
    83   42   77       1
    84   43   78       1
    85   44   79       1
    86   45   80       1
    87   46   81       1
    88   47   82       1
    89   48   83       1
@<TRIPOS>SUBSTRUCTURE
     1 FDA601      1 GROUP             4 D     FDA     0 **** FDA D 601
