@<TRIPOS>MOLECULE
4i52_1HA_5_ligand
   99   103     1     0     0
SMALL
NO_CHARGES


@<TRIPOS>ATOM
     1 OAJ         95.5290   -35.1980   -11.8530 O.3          1 1HA301   0.0000
     2 CBT         95.6970   -33.8510   -11.6380 C.ar         1 1HA301   0.0000
     3 CBW         95.0560   -33.2860   -10.5110 C.ar         1 1HA301   0.0000
     4 CAV         94.2780   -34.0790    -9.6470 C.ar         1 1HA301   0.0000
     5 CAR         93.6360   -33.5200    -8.5530 C.ar         1 1HA301   0.0000
     6 CAQ         93.7710   -32.1700    -8.2790 C.ar         1 1HA301   0.0000
     7 CAU         94.5420   -31.3660    -9.1190 C.ar         1 1HA301   0.0000
     8 CBV         95.1700   -31.9270   -10.2280 C.ar         1 1HA301   0.0000
     9 CAW         95.9380   -31.1170   -11.0560 C.ar         1 1HA301   0.0000
    10 CAT         96.5790   -31.6570   -12.1590 C.ar         1 1HA301   0.0000
    11 CBU         96.4940   -33.0160   -12.4690 C.ar         1 1HA301   0.0000
    12 CBR         97.2740   -33.2980   -13.7620 C.2          1 1HA301   0.0000
    13 OAF         97.5720   -32.5860   -14.6970 O.2          1 1HA301   0.0000
    14 SBO         97.7500   -35.0040   -13.4070 S.3          1 1HA301   0.0000
    15 CBA         98.5320   -35.4850   -14.9800 C.3          1 1HA301   0.0000
    16 CAY         99.8080   -34.6950   -15.3290 C.3          1 1HA301   0.0000
    17 NBH        100.1010   -34.4080   -16.7060 N.am         1 1HA301   0.0000
    18 CBP        100.6870   -35.3980   -17.5930 C.2          1 1HA301   0.0000
    19 OAD        100.9790   -36.5200   -17.1800 O.2          1 1HA301   0.0000
    20 CBB        101.0530   -35.1390   -19.0580 C.3          1 1HA301   0.0000
    21 CAZ        102.6100   -34.9650   -19.2050 C.3          1 1HA301   0.0000
    22 NBI        103.0230   -34.5720   -20.5360 N.am         1 1HA301   0.0000
    23 CBQ        103.0030   -35.5500   -21.6260 C.2          1 1HA301   0.0000
    24 OAE        102.6190   -36.7040   -21.4170 O.2          1 1HA301   0.0000
    25 CBZ        103.4230   -35.1480   -23.0500 C.3          1 1HA301   0.0000
    26 OAK        104.4080   -34.2310   -22.8980 O.3          1 1HA301   0.0000
    27 CCF        102.2520   -34.6990   -24.0700 C.3          1 1HA301   0.0000
    28 CAA        101.2640   -33.9960   -23.0270 C.3          1 1HA301   0.0000
    29 CAB        101.1150   -35.5350   -24.7820 C.3          1 1HA301   0.0000
    30 CBD        103.1420   -34.4690   -25.3470 C.3          1 1HA301   0.0000
    31 OBK        104.0160   -35.4140   -25.8250 O.3          1 1HA301   0.0000
    32 PCI        105.2240   -34.9030   -26.7110 P.3          1 1HA301   0.0000
    33 OAP        106.0960   -36.0970   -26.9350 O.co2        1 1HA301   0.0000
    34 OAI        104.7290   -34.3520   -27.9370 O.co2        1 1HA301  -1.0000
    35 OBN        105.9970   -33.7130   -25.9640 O.3          1 1HA301   0.0000
    36 PCH        107.0450   -34.0000   -24.8050 P.3          1 1HA301   0.0000
    37 OAO        108.3860   -34.3710   -25.3660 O.co2        1 1HA301   0.0000
    38 OAH        106.5580   -35.1810   -23.9550 O.co2        1 1HA301  -1.0000
    39 O5'        107.0950   -32.7070   -23.9600 O.3          1 1HA301   0.0000
    40 C5'        107.7740   -31.5300   -24.3370 C.3          1 1HA301   0.0000
    41 C4'        108.2720   -30.6900   -23.2140 C.3          1 1HA301   0.0000
    42 O4'        107.1430   -30.2380   -22.4070 O.3          1 1HA301   0.0000
    43 C3'        109.1140   -31.4590   -22.2870 C.3          1 1HA301   0.0000
    44 O3'        109.9500   -30.5830   -21.6110 O.3          1 1HA301   0.0000
    45 PCG        111.5470   -30.5730   -21.7730 P.3          1 1HA301   0.0000
    46 OAM        112.1270   -29.7870   -20.6010 O.co2        1 1HA301   0.0000
    47 OAN        111.8790   -29.8350   -23.0560 O.co2        1 1HA301  -1.0000
    48 OAG        112.0530   -31.9850   -21.8160 O.co2        1 1HA301  -1.0000
    49 C2'        108.1360   -32.0140   -21.3460 C.3          1 1HA301   0.0000
    50 O2'        108.6850   -32.4160   -20.1790 O.3          1 1HA301   0.0000
    51 C1'        107.2600   -30.8370   -21.1460 C.3          1 1HA301   0.0000
    52 N9         105.9770   -31.1520   -20.5730 N.pl3        1 1HA301   0.0000
    53 C8         104.8810   -31.4990   -21.2530 C.2          1 1HA301   0.0000
    54 N7         103.8770   -31.7130   -20.3930 N.2          1 1HA301   0.0000
    55 C5         104.3370   -31.5230   -19.1380 C.ar         1 1HA301   0.0000
    56 C4         105.6760   -31.1600   -19.2540 C.ar         1 1HA301   0.0000
    57 N3         106.3970   -30.9050   -18.1480 N.ar         1 1HA301   0.0000
    58 C2         105.8570   -30.9820   -16.9240 C.ar         1 1HA301   0.0000
    59 N1         104.5730   -31.3260   -16.7970 N.ar         1 1HA301   0.0000
    60 C6         103.7820   -31.6030   -17.8470 C.ar         1 1HA301   0.0000
    61 N6         102.4120   -31.9680   -17.6280 N.pl3        1 1HA301   0.0000
    62 HAJ         94.9707   -35.7389   -11.2240 H            1 1HA301   0.0000
    63 HAV         94.1871   -35.0589    -9.8247 H            1 1HA301   0.0000
    64 HAR         93.0728   -34.0946    -7.9591 H            1 1HA301   0.0000
    65 HAQ         93.3174   -31.7722    -7.4815 H            1 1HA301   0.0000
    66 HAU         94.6433   -30.3902    -8.9253 H            1 1HA301   0.0000
    67 HAW         96.0282   -30.1416   -10.8550 H            1 1HA301   0.0000
    68 HAT         97.1178   -31.0567   -12.7500 H            1 1HA301   0.0000
    69 HBA1        97.8678   -35.3451   -15.7143 H            1 1HA301   0.0000
    70 HBA2        98.7703   -36.4547   -14.9263 H            1 1HA301   0.0000
    71 HAY1       100.5817   -35.2158   -14.9682 H            1 1HA301   0.0000
    72 HAY2        99.7468   -33.8170   -14.8543 H            1 1HA301   0.0000
    73 HBH         99.8950   -33.4978   -17.0652 H            1 1HA301   0.0000
    74 HBB1       100.5963   -34.3061   -19.3705 H            1 1HA301   0.0000
    75 HBB2       100.7528   -35.9130   -19.6155 H            1 1HA301   0.0000
    76 HAZ1       103.0485   -35.8355   -18.9814 H            1 1HA301   0.0000
    77 HAZ2       102.9127   -34.2638   -18.5595 H            1 1HA301   0.0000
    78 HBI        103.3216   -33.6338   -20.7108 H            1 1HA301   0.0000
    79 HBZ        103.8521   -35.9558   -23.4541 H            1 1HA301   0.0000
    80 HAK        105.2441   -34.5646   -23.3334 H            1 1HA301   0.0000
    81 HAA1       100.4597   -33.6506   -23.5105 H            1 1HA301   0.0000
    82 HAA2       100.9782   -34.6618   -22.3378 H            1 1HA301   0.0000
    83 HAA3       101.7364   -33.2360   -22.5806 H            1 1HA301   0.0000
    84 HAB1       100.5611   -34.9273   -25.3510 H            1 1HA301   0.0000
    85 HAB2       101.5300   -36.2417   -25.3550 H            1 1HA301   0.0000
    86 HAB3       100.5346   -35.9649   -24.0904 H            1 1HA301   0.0000
    87 HBD1       103.6914   -33.6551   -25.1580 H            1 1HA301   0.0000
    88 HBD2       102.5071   -34.2763   -26.0952 H            1 1HA301   0.0000
    89 H5'1       107.1472   -30.9742   -24.8831 H            1 1HA301   0.0000
    90 H5'2       108.5597   -31.7934   -24.8967 H            1 1HA301   0.0000
    91 H4'        108.7786   -29.9044   -23.5692 H            1 1HA301   0.0000
    92 H3'        109.6276   -32.1765   -22.7575 H            1 1HA301   0.0000
    93 H2'        107.6265   -32.7626   -21.7703 H            1 1HA301   0.0000
    94 H33        108.2745   -31.9048   -19.4239 H            1 1HA301   0.0000
    95 H1'        107.7278   -30.1971   -20.5364 H            1 1HA301   0.0000
    96 H35        104.8198   -31.5854   -22.2474 H            1 1HA301   0.0000
    97 H36        106.4096   -30.7840   -16.1144 H            1 1HA301   0.0000
    98 H37        102.0498   -32.0152   -16.6971 H            1 1HA301   0.0000
    99 H38        101.8192   -32.1752   -18.4063 H            1 1HA301   0.0000
@<TRIPOS>BOND
     1    1    2       1
     2    2    3      ar
     3    2   11      ar
     4    3    4      ar
     5    3    8      ar
     6    4    5      ar
     7    5    6      ar
     8    6    7      ar
     9    7    8      ar
    10    8    9      ar
    11    9   10      ar
    12   10   11      ar
    13   11   12       1
    14   12   13       2
    15   12   14       1
    16   14   15       1
    17   15   16       1
    18   16   17       1
    19   17   18      am
    20   18   19       2
    21   18   20       1
    22   20   21       1
    23   21   22       1
    24   22   23      am
    25   23   24       2
    26   23   25       1
    27   25   26       1
    28   25   27       1
    29   27   28       1
    30   27   29       1
    31   27   30       1
    32   30   31       1
    33   31   32       1
    34   32   33      ar
    35   32   34      ar
    36   32   35       1
    37   35   36       1
    38   36   37      ar
    39   36   38      ar
    40   36   39       1
    41   39   40       1
    42   40   41       1
    43   41   42       1
    44   41   43       1
    45   42   51       1
    46   43   44       1
    47   43   49       1
    48   44   45       1
    49   45   46      ar
    50   45   47      ar
    51   45   48      ar
    52   49   50       1
    53   49   51       1
    54   51   52       1
    55   52   53       1
    56   52   56       1
    57   53   54       2
    58   54   55       1
    59   55   56      ar
    60   55   60      ar
    61   56   57      ar
    62   57   58      ar
    63   58   59      ar
    64   59   60      ar
    65   60   61       1
    66    1   62       1
    67    4   63       1
    68    5   64       1
    69    6   65       1
    70    7   66       1
    71    9   67       1
    72   10   68       1
    73   15   69       1
    74   15   70       1
    75   16   71       1
    76   16   72       1
    77   17   73       1
    78   20   74       1
    79   20   75       1
    80   21   76       1
    81   21   77       1
    82   22   78       1
    83   25   79       1
    84   26   80       1
    85   28   81       1
    86   28   82       1
    87   28   83       1
    88   29   84       1
    89   29   85       1
    90   29   86       1
    91   30   87       1
    92   30   88       1
    93   61   99       1
    94   61   98       1
    95   40   89       1
    96   40   90       1
    97   41   91       1
    98   43   92       1
    99   58   97       1
   100   53   96       1
   101   49   93       1
   102   50   94       1
   103   51   95       1
@<TRIPOS>SUBSTRUCTURE
     1 1HA301      1 GROUP             4 E     1HA     0 **** 1HA E 301
