@<TRIPOS>MOLECULE
1j95_TBA_1_ligand
   29    28     1     0     0
SMALL
NO_CHARGES


@<TRIPOS>ATOM
     1 N1          72.8500    26.9140    22.8490 N.4          1 TBA204   1.0000
     2 C11         73.2180    28.3740    22.3190 C.3          1 TBA204   0.0000
     3 C12         74.7020    28.7750    22.5130 C.3          1 TBA204   0.0000
     4 C21         73.7710    25.8120    22.1580 C.3          1 TBA204   0.0000
     5 C22         73.5200    24.3130    22.6510 C.3          1 TBA204   0.0000
     6 C31         71.2990    26.7280    22.9550 C.3          1 TBA204   0.0000
     7 C32         70.4990    27.6190    24.0430 C.3          1 TBA204   0.0000
     8 C41         73.4760    26.9190    24.2500 C.3          1 TBA204   0.0000
     9 C42         72.7920    25.9100    25.3050 C.3          1 TBA204   0.0000
    10 H1          72.6495    29.0358    22.8077 H            1 TBA204   0.0000
    11 H2          73.0095    28.4129    21.3418 H            1 TBA204   0.0000
    12 H3          74.8472    29.6979    22.1565 H            1 TBA204   0.0000
    13 H4          74.9283    28.7544    23.4868 H            1 TBA204   0.0000
    14 H5          75.2883    28.1315    22.0209 H            1 TBA204   0.0000
    15 H6          74.7255    26.0441    22.3455 H            1 TBA204   0.0000
    16 H7          73.6073    25.8454    21.1721 H            1 TBA204   0.0000
    17 H8          74.1386    23.6947    22.1662 H            1 TBA204   0.0000
    18 H9          73.6912    24.2524    23.6344 H            1 TBA204   0.0000
    19 H10         72.5731    24.0537    22.4609 H            1 TBA204   0.0000
    20 H11         71.1292    25.7674    23.1748 H            1 TBA204   0.0000
    21 H12         70.9124    26.9378    22.0569 H            1 TBA204   0.0000
    22 H13         69.5243    27.3993    24.0019 H            1 TBA204   0.0000
    23 H14         70.8475    27.4190    24.9587 H            1 TBA204   0.0000
    24 H15         70.6307    28.5894    23.8408 H            1 TBA204   0.0000
    25 H16         73.4064    27.8464    24.6176 H            1 TBA204   0.0000
    26 H17         74.4397    26.6675    24.1601 H            1 TBA204   0.0000
    27 H18         73.2613    25.9797    26.1853 H            1 TBA204   0.0000
    28 H19         71.8286    26.1516    25.4208 H            1 TBA204   0.0000
    29 H20         72.8619    24.9728    24.9633 H            1 TBA204   0.0000
@<TRIPOS>BOND
     1    1    2       1
     2    1    4       1
     3    1    6       1
     4    1    8       1
     5    2    3       1
     6    4    5       1
     7    6    7       1
     8    8    9       1
     9    2   10       1
    10    2   11       1
    11    3   12       1
    12    3   13       1
    13    3   14       1
    14    4   15       1
    15    4   16       1
    16    5   17       1
    17    5   18       1
    18    5   19       1
    19    6   20       1
    20    6   21       1
    21    7   22       1
    22    7   23       1
    23    7   24       1
    24    8   25       1
    25    8   26       1
    26    9   27       1
    27    9   28       1
    28    9   29       1
@<TRIPOS>SUBSTRUCTURE
     1 TBA204      1 GROUP             4 A     TBA     0 **** TBA A 204
