@<TRIPOS>MOLECULE
4qi9_MTX_2_ligand
   54    56     1     0     0
SMALL
NO_CHARGES


@<TRIPOS>ATOM
     1 N1         -38.2560   -83.8480     6.5200 N.ar         1 MTX201   1.0000
     2 C2         -37.9520   -85.1270     6.1000 C.ar         1 MTX201   0.0000
     3 NA2        -37.3740   -85.3160     4.9180 N.pl3        1 MTX201   0.0000
     4 N3         -38.2510   -86.2260     6.8910 N.ar         1 MTX201   0.0000
     5 C4         -38.8550   -86.0630     8.1070 C.ar         1 MTX201   0.0000
     6 NA4        -39.0230   -87.1300     8.8830 N.pl3        1 MTX201   0.0000
     7 C4A        -39.1510   -84.7720     8.5460 C.ar         1 MTX201   0.0000
     8 N5         -39.7610   -84.5670     9.7610 N.ar         1 MTX201   0.0000
     9 C6         -40.0710   -83.2880    10.1940 C.ar         1 MTX201   0.0000
    10 C7         -39.7660   -82.1910     9.3940 C.ar         1 MTX201   0.0000
    11 N8         -39.1620   -82.3970     8.1710 N.ar         1 MTX201   0.0000
    12 C8A        -38.8540   -83.6710     7.7440 C.ar         1 MTX201   0.0000
    13 C9         -40.7490   -83.1000    11.5370 C.3          1 MTX201   0.0000
    14 N10        -41.3950   -81.8000    11.6780 N.pl3        1 MTX201   0.0000
    15 CM         -40.9780   -80.9230    12.7820 C.3          1 MTX201   0.0000
    16 C11        -44.6180   -80.4960     9.2880 C.ar         1 MTX201   0.0000
    17 C12        -44.1730   -79.7110    10.3540 C.ar         1 MTX201   0.0000
    18 C13        -43.0760   -80.1200    11.1090 C.ar         1 MTX201   0.0000
    19 C14        -42.4910   -81.3670    10.8720 C.ar         1 MTX201   0.0000
    20 C15        -42.9820   -82.1560     9.8460 C.ar         1 MTX201   0.0000
    21 C16        -44.0370   -81.7280     9.0570 C.ar         1 MTX201   0.0000
    22 C          -45.7800   -80.0580     8.4450 C.2          1 MTX201   0.0000
    23 O          -46.6960   -79.1560     9.0210 O.2          1 MTX201   0.0000
    24 N          -45.9680   -80.5220     7.2100 N.am         1 MTX201   0.0000
    25 CA         -47.3260   -80.5130     6.6720 C.3          1 MTX201   0.0000
    26 CT         -47.6700   -81.5760     5.6630 C.2          1 MTX201   0.0000
    27 O1         -46.8780   -82.5050     5.3760 O.co2        1 MTX201   0.0000
    28 O2         -48.7800   -81.5430     5.0900 O.co2        1 MTX201  -1.0000
    29 CB         -47.6410   -79.1760     6.0320 C.3          1 MTX201   0.0000
    30 CG         -46.4760   -78.6340     5.2200 C.3          1 MTX201   0.0000
    31 CD         -46.8960   -77.2270     4.8720 C.2          1 MTX201   0.0000
    32 OE1        -47.8370   -76.6980     5.5150 O.co2        1 MTX201   0.0000
    33 OE2        -46.3290   -76.5900     3.9560 O.co2        1 MTX201  -1.0000
    34 HA21       -37.1529   -86.2420     4.6119 H            1 MTX201   0.0000
    35 HA22       -37.1602   -84.5322     4.3349 H            1 MTX201   0.0000
    36 HA41       -39.4622   -87.0344     9.7763 H            1 MTX201   0.0000
    37 HA42       -38.7101   -88.0278     8.5732 H            1 MTX201   0.0000
    38 H5         -39.9821   -81.2645     9.7020 H            1 MTX201   0.0000
    39 H6         -40.0604   -83.1923    12.2563 H            1 MTX201   0.0000
    40 H7         -41.4421   -83.8127    11.6456 H            1 MTX201   0.0000
    41 HM1        -41.5048   -80.0736    12.7502 H            1 MTX201   0.0000
    42 HM2        -41.1415   -81.3842    13.6541 H            1 MTX201   0.0000
    43 HM3        -40.0040   -80.7147    12.6926 H            1 MTX201   0.0000
    44 H11        -44.6416   -78.8557    10.5752 H            1 MTX201   0.0000
    45 H12        -42.7072   -79.5216    11.8203 H            1 MTX201   0.0000
    46 H13        -42.5683   -83.0495     9.6716 H            1 MTX201   0.0000
    47 H14        -44.3783   -82.3111     8.3198 H            1 MTX201   0.0000
    48 H15        -45.2018   -80.8663     6.6674 H            1 MTX201   0.0000
    49 HA         -47.9508   -80.6255     7.4446 H            1 MTX201   0.0000
    50 HB1        -47.8633   -78.5193     6.7527 H            1 MTX201   0.0000
    51 HB2        -48.4298   -79.2872     5.4274 H            1 MTX201   0.0000
    52 HG1        -46.3360   -79.1780     4.3926 H            1 MTX201   0.0000
    53 HG2        -45.6360   -78.6302     5.7626 H            1 MTX201   0.0000
    54 H21        -38.0438   -83.0607     5.9411 H            1 MTX201   0.0000
@<TRIPOS>BOND
     1    1    2      ar
     2    1   12      ar
     3    2    3       1
     4    2    4      ar
     5    4    5      ar
     6    5    6       1
     7    5    7      ar
     8    7    8      ar
     9    7   12      ar
    10    8    9      ar
    11    9   10      ar
    12    9   13       1
    13   10   11      ar
    14   11   12      ar
    15   13   14       1
    16   14   15       1
    17   14   19       1
    18   16   17      ar
    19   16   21      ar
    20   16   22       1
    21   17   18      ar
    22   18   19      ar
    23   19   20      ar
    24   20   21      ar
    25   22   23       2
    26   22   24      am
    27   24   25       1
    28   25   26       1
    29   25   29       1
    30   26   27      ar
    31   26   28      ar
    32   29   30       1
    33   30   31       1
    34   31   32      ar
    35   31   33      ar
    36    3   34       1
    37    3   35       1
    38    6   36       1
    39    6   37       1
    40   10   38       1
    41   13   39       1
    42   13   40       1
    43   15   41       1
    44   15   42       1
    45   15   43       1
    46   17   44       1
    47   18   45       1
    48   20   46       1
    49   21   47       1
    50   24   48       1
    51   25   49       1
    52   30   53       1
    53   29   50       1
    54   29   51       1
    55   30   52       1
    56    1   54       1
@<TRIPOS>SUBSTRUCTURE
     1 MTX201      1 GROUP             4 B     MTX     0 **** MTX B 201
