@<TRIPOS>MOLECULE
2wvm_GDD_2_ligand
   62    65     1     0     0
SMALL
NO_CHARGES


@<TRIPOS>ATOM
     1 N2          16.5350    -7.4860   -13.7830 N.pl3        1 GDD400   0.0000
     2 C2          16.7320    -6.1080   -14.2690 C.2          1 GDD400   0.0000
     3 N1          17.9070    -5.4420   -14.0660 N.pl3        1 GDD400   0.0000
     4 N3          15.6890    -5.5540   -14.9140 N.2          1 GDD400   0.0000
     5 C4          15.8120    -4.2970   -15.3970 C.2          1 GDD400   0.0000
     6 C5          16.9910    -3.5890   -15.2260 C.2          1 GDD400   0.0000
     7 C6          18.0550    -4.1880   -14.5440 C.2          1 GDD400   0.0000
     8 O6          19.2330    -3.5320   -14.3560 O.2          1 GDD400   0.0000
     9 N7          16.7930    -2.3790   -15.7920 N.2          1 GDD400   0.0000
    10 C8          15.5420    -2.3470   -16.3020 C.2          1 GDD400   0.0000
    11 N9          14.9620    -3.5300   -16.0650 N.pl3        1 GDD400   0.0000
    12 C1'         13.5860    -3.9560   -16.3700 C.3          1 GDD400   0.0000
    13 C2'         12.6500    -2.7480   -16.3920 C.3          1 GDD400   0.0000
    14 O2'         11.9520    -2.5100   -15.1670 O.3          1 GDD400   0.0000
    15 C3'         11.6980    -3.1250   -17.4880 C.3          1 GDD400   0.0000
    16 O3'         10.6850    -4.0060   -16.9580 O.3          1 GDD400   0.0000
    17 C4'         12.6490    -3.8290   -18.4450 C.3          1 GDD400   0.0000
    18 O4'         13.5350    -4.5800   -17.6440 O.3          1 GDD400   0.0000
    19 C5'         13.5100    -2.8000   -19.1470 C.3          1 GDD400   0.0000
    20 O5'         12.5960    -1.8170   -19.5860 O.3          1 GDD400   0.0000
    21 PA          13.0500    -0.2990   -19.7060 P.3          1 GDD400   0.0000
    22 O1A         11.7510     0.4920   -19.9190 O.co2        1 GDD400   0.0000
    23 O2A         14.0780    -0.0350   -18.6560 O.co2        1 GDD400  -1.0000
    24 O3A         13.8880    -0.3140   -21.0520 O.3          1 GDD400   0.0000
    25 PB          13.3320     0.5710   -22.2590 P.3          1 GDD400   0.0000
    26 O2B         11.8370     0.7350   -22.0570 O.co2        1 GDD400   0.0000
    27 O3B         14.2390     1.7450   -22.4530 O.co2        1 GDD400  -1.0000
    28 O1B         13.6200    -0.3840   -23.5150 O.3          1 GDD400   0.0000
    29 C11         12.9920    -1.6460   -23.5750 C.3          1 GDD400   0.0000
    30 O51         12.3570    -1.8510   -24.8430 O.3          1 GDD400   0.0000
    31 C51         13.2090    -1.8630   -26.0000 C.3          1 GDD400   0.0000
    32 C61         12.3870    -2.3160   -27.1970 C.3          1 GDD400   0.0000
    33 O6A         11.2150    -2.9690   -26.7090 O.3          1 GDD400   0.0000
    34 C21         14.0830    -2.6730   -23.3280 C.3          1 GDD400   0.0000
    35 O21         13.4690    -3.9410   -23.1300 O.3          1 GDD400   0.0000
    36 C31         15.0790    -2.7940   -24.4730 C.3          1 GDD400   0.0000
    37 O31         15.7290    -4.0700   -24.3360 O.3          1 GDD400   0.0000
    38 C41         14.4280    -2.7800   -25.8520 C.3          1 GDD400   0.0000
    39 O41         15.4530    -2.4020   -26.7810 O.3          1 GDD400   0.0000
    40 H1          15.6656    -7.9534   -13.9436 H            1 GDD400   0.0000
    41 H2          17.2707    -7.9533   -13.2927 H            1 GDD400   0.0000
    42 H3          18.6537    -5.8808   -13.5660 H            1 GDD400   0.0000
    43 H4          15.1217    -1.5727   -16.7751 H            1 GDD400   0.0000
    44 H1'         13.2768    -4.6020   -15.6721 H            1 GDD400   0.0000
    45 H2'         13.1607    -1.9294   -16.6546 H            1 GDD400   0.0000
    46 H7          11.3655    -1.7064   -15.2682 H            1 GDD400   0.0000
    47 H3'         11.2907    -2.3152   -17.9103 H            1 GDD400   0.0000
    48 H9          11.1179    -4.8300   -16.5925 H            1 GDD400   0.0000
    49 H4'         12.1579    -4.4074   -19.0964 H            1 GDD400   0.0000
    50 H5'1        13.9888    -3.2098   -19.9234 H            1 GDD400   0.0000
    51 H5'2        14.1768    -2.4058   -18.5145 H            1 GDD400   0.0000
    52 H13         12.3077    -1.7095   -22.8486 H            1 GDD400   0.0000
    53 H14         13.5302    -0.9311   -26.1686 H            1 GDD400   0.0000
    54 H15         12.9216    -2.9512   -27.7544 H            1 GDD400   0.0000
    55 H16         12.1283    -1.5239   -27.7498 H            1 GDD400   0.0000
    56 H6A         11.2243    -2.9671   -25.7090 H            1 GDD400   0.0000
    57 H18         14.5783    -2.4222   -22.4962 H            1 GDD400   0.0000
    58 H19         12.5646    -3.8135   -22.7227 H            1 GDD400   0.0000
    59 H20         15.7563    -2.0609   -24.4111 H            1 GDD400   0.0000
    60 H21         15.5603    -4.6196   -25.1542 H            1 GDD400   0.0000
    61 H22         14.1419    -3.7133   -26.0691 H            1 GDD400   0.0000
    62 H23         15.6506    -3.1701   -27.3900 H            1 GDD400   0.0000
@<TRIPOS>BOND
     1    1    2       1
     2    2    3       1
     3    2    4       2
     4    3    7       1
     5    4    5       1
     6    5    6       2
     7    5   11       1
     8    6    7       1
     9    6    9       1
    10    7    8       2
    11    9   10       2
    12   10   11       1
    13   11   12       1
    14   12   13       1
    15   12   18       1
    16   13   14       1
    17   13   15       1
    18   15   16       1
    19   15   17       1
    20   17   18       1
    21   17   19       1
    22   19   20       1
    23   20   21       1
    24   21   22      ar
    25   21   23      ar
    26   21   24       1
    27   24   25       1
    28   25   26      ar
    29   25   27      ar
    30   25   28       1
    31   28   29       1
    32   29   30       1
    33   29   34       1
    34   30   31       1
    35   31   32       1
    36   31   38       1
    37   32   33       1
    38   34   35       1
    39   34   36       1
    40   36   37       1
    41   36   38       1
    42   38   39       1
    43    1   40       1
    44    1   41       1
    45    3   42       1
    46   10   43       1
    47   12   44       1
    48   13   45       1
    49   14   46       1
    50   15   47       1
    51   16   48       1
    52   17   49       1
    53   19   50       1
    54   19   51       1
    55   39   62       1
    56   38   61       1
    57   29   52       1
    58   31   53       1
    59   32   54       1
    60   32   55       1
    61   33   56       1
    62   34   57       1
    63   35   58       1
    64   36   59       1
    65   37   60       1
@<TRIPOS>SUBSTRUCTURE
     1 GDD400      1 GROUP             4 B     GDD     0 **** GDD B 400
