@<TRIPOS>MOLECULE
1hux_ADP_1_ligand
   39    41     1     0     0
SMALL
NO_CHARGES


@<TRIPOS>ATOM
     1 PB          28.2610    42.4340    48.5850 P.3          1 ADP506   0.0000
     2 O1B         28.9210    41.7780    49.7650 O.co2        1 ADP506   0.0000
     3 O2B         28.0420    41.5010    47.3550 O.co2        1 ADP506  -1.0000
     4 O3B         27.0220    43.2360    48.9400 O.co2        1 ADP506  -1.0000
     5 PA          30.6880    43.2960    47.4340 P.3          1 ADP506   0.0000
     6 O1A         30.5970    43.1330    45.9400 O.co2        1 ADP506   0.0000
     7 O2A         31.5190    42.3530    48.1830 O.co2        1 ADP506  -1.0000
     8 O3A         29.2130    43.4110    48.0280 O.3          1 ADP506   0.0000
     9 O5'         31.0760    44.7770    47.7390 O.3          1 ADP506   0.0000
    10 C5'         32.2880    45.2030    47.4050 C.3          1 ADP506   0.0000
    11 C4'         32.6690    46.4780    48.0580 C.3          1 ADP506   0.0000
    12 O4'         33.9220    46.9470    47.4750 O.3          1 ADP506   0.0000
    13 C3'         31.6650    47.7510    48.0050 C.3          1 ADP506   0.0000
    14 O3'         31.7440    48.5430    49.2160 O.3          1 ADP506   0.0000
    15 C2'         32.2030    48.4100    46.7500 C.3          1 ADP506   0.0000
    16 O2'         31.9750    49.8470    46.5770 O.3          1 ADP506   0.0000
    17 C1'         33.6950    48.1390    46.8920 C.3          1 ADP506   0.0000
    18 N9          34.5370    48.3970    45.7010 N.pl3        1 ADP506   0.0000
    19 C8          34.2570    47.9880    44.4620 C.2          1 ADP506   0.0000
    20 N7          35.1410    48.3300    43.6230 N.2          1 ADP506   0.0000
    21 C5          36.0820    49.0310    44.3670 C.ar         1 ADP506   0.0000
    22 C6          37.3310    49.6700    44.0590 C.ar         1 ADP506   0.0000
    23 N6          37.8480    49.7120    42.7980 N.pl3        1 ADP506   0.0000
    24 N1          38.0160    50.2620    45.0810 N.ar         1 ADP506   0.0000
    25 C2          37.5060    50.2310    46.3220 C.ar         1 ADP506   0.0000
    26 N3          36.3510    49.6520    46.7070 N.ar         1 ADP506   0.0000
    27 C4          35.6890    49.0690    45.6740 C.ar         1 ADP506   0.0000
    28 H5'1        32.3150    45.3348    46.4141 H            1 ADP506   0.0000
    29 H5'2        32.9525    44.5029    47.6664 H            1 ADP506   0.0000
    30 H4'         32.8455    46.2779    49.0217 H            1 ADP506   0.0000
    31 H3'         30.7255    47.4425    47.8561 H            1 ADP506   0.0000
    32 H5          31.1143    49.3170    49.1498 H            1 ADP506   0.0000
    33 H2'         31.8555    47.9233    45.9485 H            1 ADP506   0.0000
    34 H7          32.3797    50.1471    45.7132 H            1 ADP506   0.0000
    35 H1'         34.0062    48.8087    47.5662 H            1 ADP506   0.0000
    36 H9          33.4374    47.4676    44.2223 H            1 ADP506   0.0000
    37 H10         38.7218    50.1686    42.6308 H            1 ADP506   0.0000
    38 H11         37.3533    49.2862    42.0404 H            1 ADP506   0.0000
    39 H12         38.0387    50.6851    47.0362 H            1 ADP506   0.0000
@<TRIPOS>BOND
     1    1    2      ar
     2    1    3      ar
     3    1    4      ar
     4    1    8       1
     5    5    6      ar
     6    5    7      ar
     7    5    8       1
     8    5    9       1
     9    9   10       1
    10   10   11       1
    11   11   12       1
    12   11   13       1
    13   12   17       1
    14   13   14       1
    15   13   15       1
    16   15   16       1
    17   15   17       1
    18   17   18       1
    19   18   19       1
    20   18   27       1
    21   19   20       2
    22   20   21       1
    23   21   22      ar
    24   21   27      ar
    25   22   23       1
    26   22   24      ar
    27   24   25      ar
    28   25   26      ar
    29   26   27      ar
    30   25   39       1
    31   23   38       1
    32   23   37       1
    33   10   28       1
    34   10   29       1
    35   11   30       1
    36   13   31       1
    37   14   32       1
    38   15   33       1
    39   16   34       1
    40   17   35       1
    41   19   36       1
@<TRIPOS>SUBSTRUCTURE
     1 ADP506      1 GROUP             4 A     ADP     0 **** ADP A 506
