@<TRIPOS>MOLECULE
2rgh_FAD_1_ligand
   84    89     1     0     0
SMALL
NO_CHARGES


@<TRIPOS>ATOM
     1 PA          23.4530    23.5180    64.0830 P.3          1 FAD609   0.0000
     2 O1A         24.0120    23.6890    65.4360 O.co2        1 FAD609   0.0000
     3 O2A         24.1660    24.1490    62.9530 O.co2        1 FAD609  -1.0000
     4 O5B         22.0160    24.0990    64.1340 O.3          1 FAD609   0.0000
     5 C5B         21.0450    23.6940    65.1090 C.3          1 FAD609   0.0000
     6 C4B         20.1320    24.8740    64.9960 C.3          1 FAD609   0.0000
     7 O4B         18.8300    24.8040    65.6350 O.3          1 FAD609   0.0000
     8 C3B         20.8720    26.1230    65.5280 C.3          1 FAD609   0.0000
     9 O3B         21.0400    27.1460    64.5160 O.3          1 FAD609   0.0000
    10 C2B         20.0510    26.5310    66.7540 C.3          1 FAD609   0.0000
    11 O2B         20.0850    27.9670    66.9530 O.3          1 FAD609   0.0000
    12 C1B         18.6630    26.0020    66.4280 C.3          1 FAD609   0.0000
    13 N9A         17.7790    25.7500    67.6060 N.pl3        1 FAD609   0.0000
    14 C8A         18.1060    25.1960    68.7980 C.2          1 FAD609   0.0000
    15 N7A         17.0390    25.1300    69.6330 N.2          1 FAD609   0.0000
    16 C5A         16.0350    25.6590    68.9340 C.ar         1 FAD609   0.0000
    17 C6A         14.7070    25.8870    69.2070 C.ar         1 FAD609   0.0000
    18 N6A         14.2230    25.5320    70.4070 N.pl3        1 FAD609   0.0000
    19 N1A         13.8550    26.4690    68.3020 N.ar         1 FAD609   0.0000
    20 C2A         14.2850    26.8510    67.0660 C.ar         1 FAD609   0.0000
    21 N3A         15.5850    26.6490    66.7370 N.ar         1 FAD609   0.0000
    22 C4A         16.4610    26.0710    67.6300 C.ar         1 FAD609   0.0000
    23 N1          31.8820    19.0120    59.9450 N.2          1 FAD609   0.0000
    24 C2          32.3380    18.8960    58.6700 C.2          1 FAD609   0.0000
    25 O2          31.6150    18.3770    57.7950 O.2          1 FAD609   0.0000
    26 N3          33.6330    19.3860    58.3520 N.pl3        1 FAD609   0.0000
    27 C4          34.4540    19.9590    59.3680 C.2          1 FAD609   0.0000
    28 O4          35.5620    20.4820    59.0490 O.2          1 FAD609   0.0000
    29 C4X         33.9740    20.0450    60.7010 C.2          1 FAD609   0.0000
    30 N5          34.7430    20.5590    61.7370 N.2          1 FAD609   0.0000
    31 C5X         34.1830    20.9010    62.9650 C.ar         1 FAD609   0.0000
    32 C6          34.9350    21.6550    63.9000 C.ar         1 FAD609   0.0000
    33 C7          34.3660    22.0240    65.1560 C.ar         1 FAD609   0.0000
    34 C7M         35.2150    22.8330    66.1380 C.3          1 FAD609   0.0000
    35 C8          33.0190    21.6260    65.4510 C.ar         1 FAD609   0.0000
    36 C8M         32.3490    22.0080    66.7790 C.3          1 FAD609   0.0000
    37 C9          32.2890    20.8740    64.5410 C.ar         1 FAD609   0.0000
    38 C9A         32.8610    20.4880    63.2580 C.ar         1 FAD609   0.0000
    39 N10         32.1430    19.6600    62.3060 N.pl3        1 FAD609   0.0000
    40 C10         32.6320    19.5650    60.9680 C.2          1 FAD609   0.0000
    41 C1'         30.7290    19.3120    62.6150 C.3          1 FAD609   0.0000
    42 C2'         29.6630    20.0770    61.8060 C.3          1 FAD609   0.0000
    43 O2'         29.9960    21.4800    61.8050 O.3          1 FAD609   0.0000
    44 C3'         28.3130    19.8280    62.4560 C.3          1 FAD609   0.0000
    45 O3'         28.0610    18.4260    62.4780 O.3          1 FAD609   0.0000
    46 C4'         27.1220    20.5260    61.7320 C.3          1 FAD609   0.0000
    47 O4'         27.3060    21.9680    61.6000 O.3          1 FAD609   0.0000
    48 C5'         25.8160    20.2590    62.5170 C.3          1 FAD609   0.0000
    49 O5'         24.7000    20.8600    61.8500 O.3          1 FAD609   0.0000
    50 P           23.2230    20.9700    62.4860 P.3          1 FAD609   0.0000
    51 O1P         22.3910    21.6120    61.4420 O.co2        1 FAD609   0.0000
    52 O2P         22.8380    19.6400    62.9850 O.co2        1 FAD609  -1.0000
    53 O3P         23.3260    21.9060    63.7840 O.3          1 FAD609   0.0000
    54 H5B1        21.4400    23.6069    66.0235 H            1 FAD609   0.0000
    55 H5B2        20.5912    22.8386    64.8591 H            1 FAD609   0.0000
    56 H4B         19.9701    25.0247    64.0208 H            1 FAD609   0.0000
    57 H3B         21.7790    25.8397    65.8395 H            1 FAD609   0.0000
    58 H5          20.1426    27.4389    64.1859 H            1 FAD609   0.0000
    59 H2B         20.4059    26.0691    67.5668 H            1 FAD609   0.0000
    60 H7          19.7058    28.4241    66.1484 H            1 FAD609   0.0000
    61 H1B         18.2097    26.6825    65.8524 H            1 FAD609   0.0000
    62 H8A         19.0231    24.8745    69.0339 H            1 FAD609   0.0000
    63 H6A1        13.2597    25.6898    70.6242 H            1 FAD609   0.0000
    64 H6A2        14.8256    25.1097    71.0842 H            1 FAD609   0.0000
    65 H2A         13.6539    27.2721    66.4145 H            1 FAD609   0.0000
    66 H13         33.9703    19.3290    57.4123 H            1 FAD609   0.0000
    67 H14         35.8705    21.9304    63.6784 H            1 FAD609   0.0000
    68 H7M1        34.6849    23.0141    66.9664 H            1 FAD609   0.0000
    69 H7M2        36.0363    22.3140    66.3747 H            1 FAD609   0.0000
    70 H7M3        35.4788    23.6999    65.7150 H            1 FAD609   0.0000
    71 H8M1        31.4182    21.6431    66.7998 H            1 FAD609   0.0000
    72 H8M2        32.8740    21.6256    67.5393 H            1 FAD609   0.0000
    73 H8M3        32.3185    23.0040    66.8626 H            1 FAD609   0.0000
    74 H21         31.3568    20.5931    64.7694 H            1 FAD609   0.0000
    75 H1'1        30.5713    19.4978    63.5848 H            1 FAD609   0.0000
    76 H1'2        30.6069    18.3353    62.4386 H            1 FAD609   0.0000
    77 H2'         29.6490    19.7364    60.8659 H            1 FAD609   0.0000
    78 H25         29.1575    22.0216    61.7444 H            1 FAD609   0.0000
    79 H3'         28.3490    20.1588    63.3990 H            1 FAD609   0.0000
    80 H27         28.4194    18.0362    63.3263 H            1 FAD609   0.0000
    81 H4'         27.0301    20.1317    60.8176 H            1 FAD609   0.0000
    82 H29         26.5164    22.3632    61.1306 H            1 FAD609   0.0000
    83 H5'1        25.8986    20.6464    63.4352 H            1 FAD609   0.0000
    84 H5'2        25.6676    19.2723    62.5836 H            1 FAD609   0.0000
@<TRIPOS>BOND
     1    1    2      ar
     2    1    3      ar
     3    1    4       1
     4    1   53       1
     5    4    5       1
     6    5    6       1
     7    6    7       1
     8    6    8       1
     9    7   12       1
    10    8    9       1
    11    8   10       1
    12   10   11       1
    13   10   12       1
    14   12   13       1
    15   13   14       1
    16   13   22       1
    17   14   15       2
    18   15   16       1
    19   16   17      ar
    20   16   22      ar
    21   17   18       1
    22   17   19      ar
    23   19   20      ar
    24   20   21      ar
    25   21   22      ar
    26   23   24       1
    27   23   40       2
    28   24   25       2
    29   24   26       1
    30   26   27       1
    31   27   28       2
    32   27   29       1
    33   29   30       2
    34   29   40       1
    35   30   31       1
    36   31   32      ar
    37   31   38      ar
    38   32   33      ar
    39   33   34       1
    40   33   35      ar
    41   35   36       1
    42   35   37      ar
    43   37   38      ar
    44   38   39       1
    45   39   40       1
    46   39   41       1
    47   41   42       1
    48   42   43       1
    49   42   44       1
    50   44   45       1
    51   44   46       1
    52   46   47       1
    53   46   48       1
    54   48   49       1
    55   49   50       1
    56   50   51      ar
    57   50   52      ar
    58   50   53       1
    59   48   84       1
    60    5   54       1
    61    5   55       1
    62    6   56       1
    63    8   57       1
    64    9   58       1
    65   10   59       1
    66   11   60       1
    67   12   61       1
    68   14   62       1
    69   18   63       1
    70   18   64       1
    71   20   65       1
    72   26   66       1
    73   32   67       1
    74   34   68       1
    75   34   69       1
    76   34   70       1
    77   36   71       1
    78   36   72       1
    79   36   73       1
    80   37   74       1
    81   41   75       1
    82   41   76       1
    83   42   77       1
    84   43   78       1
    85   44   79       1
    86   45   80       1
    87   46   81       1
    88   47   82       1
    89   48   83       1
@<TRIPOS>SUBSTRUCTURE
     1 FAD609      1 GROUP             4 A     FAD     0 **** FAD A 609
