@<TRIPOS>MOLECULE
2x1e_X1E_1_ligand
   26    27     1     0     0
SMALL
NO_CHARGES


@<TRIPOS>ATOM
     1 O13        -43.0290    25.4700    -2.6270 O.co2        1 X1E1358   0.0000
     2 C11        -42.3590    24.5160    -3.0880 C.2          1 X1E1358   0.0000
     3 O12        -42.8810    23.6390    -3.8090 O.co2        1 X1E1358  -1.0000
     4 C3         -40.8810    24.4150    -2.7870 C.3          1 X1E1358   0.0000
     5 C2         -40.0420    25.3760    -3.6340 C.3          1 X1E1358   0.0000
     6 C10        -40.6650    25.7840    -4.9690 C.3          1 X1E1358   0.0000
     7 C9         -38.6840    24.7520    -3.8990 C.3          1 X1E1358   0.0000
     8 N4         -40.4980    24.9090    -1.4740 N.am         1 X1E1358   0.0000
     9 C7         -39.7870    24.4750    -0.4630 C.2          1 X1E1358   0.0000
    10 O8         -39.3500    23.3990    -0.0860 O.2          1 X1E1358   0.0000
    11 C6         -39.6440    25.8690     0.0590 C.3          1 X1E1358   0.0000
    12 N14        -38.2950    26.3820    -0.0640 N.4          1 X1E1358   1.0000
    13 C5         -40.5650    26.2970    -1.1020 C.3          1 X1E1358   0.0000
    14 S1         -39.8520    26.8210    -2.6260 S.3          1 X1E1358   0.0000
    15 H1         -40.5641    23.4747    -2.9110 H            1 X1E1358   0.0000
    16 H2         -40.0479    26.4085    -5.4478 H            1 X1E1358   0.0000
    17 H3         -40.8157    24.9695    -5.5293 H            1 X1E1358   0.0000
    18 H4         -41.5389    26.2409    -4.8032 H            1 X1E1358   0.0000
    19 H5         -38.1325    25.3764    -4.4521 H            1 X1E1358   0.0000
    20 H6         -38.2211    24.5794    -3.0296 H            1 X1E1358   0.0000
    21 H7         -38.8038    23.8891    -4.3899 H            1 X1E1358   0.0000
    22 H8         -40.0464    26.0043     0.9644 H            1 X1E1358   0.0000
    23 H9         -38.1922    26.8412    -0.9464 H            1 X1E1358   0.0000
    24 H10        -38.1176    27.0336     0.6735 H            1 X1E1358   0.0000
    25 H11        -41.4633    26.6662    -0.8639 H            1 X1E1358   0.0000
    26 H12        -37.6439    25.6254    -0.0041 H            1 X1E1358   0.0000
@<TRIPOS>BOND
     1    1    2      ar
     2    2    3      ar
     3    2    4       1
     4    4    5       1
     5    4    8       1
     6    5    6       1
     7    5    7       1
     8    5   14       1
     9    8    9      am
    10    8   13       1
    11    9   10       2
    12    9   11       1
    13   11   12       1
    14   11   13       1
    15   13   14       1
    16   13   25       1
    17    4   15       1
    18    6   16       1
    19    6   17       1
    20    6   18       1
    21    7   19       1
    22    7   20       1
    23    7   21       1
    24   11   22       1
    25   12   23       1
    26   12   24       1
    27   12   26       1
@<TRIPOS>SUBSTRUCTURE
     1 X1E1358     1 GROUP             4 A     X1E     0 **** X1E A1358
