@<TRIPOS>MOLECULE
3w0j_T08_1_ligand
   69    70     1     0     0
SMALL
NO_CHARGES


@<TRIPOS>ATOM
     1 O05         10.3750    -0.7850    28.3280 O.3          1 T08501   0.0000
     2 C20          9.5620     0.3800    28.1540 C.3          1 T08501   0.0000
     3 C21          8.2110     0.0640    27.5020 C.3          1 T08501   0.0000
     4 C24          7.3720    -0.8000    28.4400 C.3          1 T08501   0.0000
     5 C23          8.3880    -0.6700    26.1890 C.3          1 T08501   0.0000
     6 C22          7.4700     1.3680    27.2430 C.3          1 T08501   0.0000
     7 C19         10.3370     1.3510    27.3000 C.3          1 T08501   0.0000
     8 O04         11.3470     1.9520    28.0770 O.3          1 T08501   0.0000
     9 C16         12.2420     2.8100    27.4970 C.ar         1 T08501   0.0000
    10 C17         11.7840     3.9300    26.8100 C.ar         1 T08501   0.0000
    11 C18         12.6920     4.8000    26.2220 C.ar         1 T08501   0.0000
    12 C15         13.6080     2.5700    27.6130 C.ar         1 T08501   0.0000
    13 C25         14.1200     1.3690    28.3590 C.3          1 T08501   0.0000
    14 C14         14.5160     3.4490    27.0320 C.ar         1 T08501   0.0000
    15 C13         14.0640     4.5670    26.3330 C.ar         1 T08501   0.0000
    16 C10         15.0750     5.5070    25.7460 C.3          1 T08501   0.0000
    17 C11         16.4380     4.8060    25.7340 C.3          1 T08501   0.0000
    18 C12         15.1400     6.7400    26.6620 C.3          1 T08501   0.0000
    19 C7          14.7820     5.9180    24.3250 C.ar         1 T08501   0.0000
    20 C6          15.0170     7.2390    23.9330 C.ar         1 T08501   0.0000
    21 C5          14.7730     7.6340    22.6250 C.ar         1 T08501   0.0000
    22 C5A         15.0160     9.0630    22.2090 C.3          1 T08501   0.0000
    23 C8          14.3290     4.9740    23.3950 C.ar         1 T08501   0.0000
    24 C9          14.0740     5.3220    22.0700 C.ar         1 T08501   0.0000
    25 C4          14.2770     6.6250    21.6430 C.ar         1 T08501   0.0000
    26 O03         14.0600     6.9620    20.3330 O.3          1 T08501   0.0000
    27 C3          15.2160     6.8590    19.4970 C.3          1 T08501   0.0000
    28 C2          14.8700     6.5930    18.0320 C.3          1 T08501   0.0000
    29 O02         14.2810     5.2960    17.8320 O.3          1 T08501   0.0000
    30 C1          13.9220     7.6670    17.5370 C.3          1 T08501   0.0000
    31 O01         14.7210     8.8420    17.4370 O.3          1 T08501   0.0000
    32 H1          10.9611    -0.6658    29.1295 H            1 T08501   0.0000
    33 H2           9.3990     0.7961    29.0486 H            1 T08501   0.0000
    34 H3           6.4926    -1.0026    28.0093 H            1 T08501   0.0000
    35 H4           7.8558    -1.6547    28.6279 H            1 T08501   0.0000
    36 H5           7.2180    -0.3087    29.2973 H            1 T08501   0.0000
    37 H6           7.4910    -0.8609    25.7903 H            1 T08501   0.0000
    38 H7           8.9190    -0.1031    25.5592 H            1 T08501   0.0000
    39 H8           8.8709    -1.5306    26.3507 H            1 T08501   0.0000
    40 H9           6.5869     1.1707    26.8174 H            1 T08501   0.0000
    41 H10          7.3233     1.8457    28.1092 H            1 T08501   0.0000
    42 H11          8.0130     1.9443    26.6323 H            1 T08501   0.0000
    43 H12          9.7194     2.0562    26.9518 H            1 T08501   0.0000
    44 H13         10.7522     0.8629    26.5323 H            1 T08501   0.0000
    45 H14         10.8024     4.1079    26.7400 H            1 T08501   0.0000
    46 H15         12.3618     5.5972    25.7166 H            1 T08501   0.0000
    47 H16         15.1197     1.3637    28.3362 H            1 T08501   0.0000
    48 H17         13.8084     1.4086    29.3084 H            1 T08501   0.0000
    49 H18         13.7723     0.5360    27.9285 H            1 T08501   0.0000
    50 H19         15.4977     3.2781    27.1162 H            1 T08501   0.0000
    51 H20         17.1251     5.4197    25.3450 H            1 T08501   0.0000
    52 H21         16.6973     4.5654    26.6693 H            1 T08501   0.0000
    53 H22         16.3809     3.9756    25.1798 H            1 T08501   0.0000
    54 H23         15.8073     7.3903    26.2988 H            1 T08501   0.0000
    55 H24         14.2397     7.1735    26.7018 H            1 T08501   0.0000
    56 H25         15.4153     6.4583    27.5812 H            1 T08501   0.0000
    57 H26         15.3622     7.9019    24.5974 H            1 T08501   0.0000
    58 H5A1        14.7901     9.1713    21.2409 H            1 T08501   0.0000
    59 H5A2        14.4409     9.6717    22.7556 H            1 T08501   0.0000
    60 H5A3        15.9781     9.2936    22.3547 H            1 T08501   0.0000
    61 H30         14.1853     4.0289    23.6884 H            1 T08501   0.0000
    62 H31         13.7443     4.6311    21.4266 H            1 T08501   0.0000
    63 H32         15.7856     6.1083    19.8315 H            1 T08501   0.0000
    64 H33         15.7277     7.7163    19.5533 H            1 T08501   0.0000
    65 H34         15.7120     6.6434    17.4948 H            1 T08501   0.0000
    66 H35         13.4377     5.2271    18.3649 H            1 T08501   0.0000
    67 H36         13.1747     7.8038    18.1872 H            1 T08501   0.0000
    68 H37         13.5458     7.4201    16.6440 H            1 T08501   0.0000
    69 H38         15.1222     8.8954    16.5226 H            1 T08501   0.0000
@<TRIPOS>BOND
     1    1    2       1
     2    2    3       1
     3    2    7       1
     4    3    4       1
     5    3    5       1
     6    3    6       1
     7    7    8       1
     8    8    9       1
     9    9   10      ar
    10    9   12      ar
    11   10   11      ar
    12   11   15      ar
    13   12   13       1
    14   12   14      ar
    15   14   15      ar
    16   15   16       1
    17   16   17       1
    18   16   18       1
    19   16   19       1
    20   19   20      ar
    21   19   23      ar
    22   20   21      ar
    23   21   22       1
    24   21   25      ar
    25   23   24      ar
    26   24   25      ar
    27   25   26       1
    28   26   27       1
    29   27   28       1
    30   28   29       1
    31   28   30       1
    32   30   31       1
    33    1   32       1
    34    2   33       1
    35    4   34       1
    36    4   35       1
    37    4   36       1
    38    5   37       1
    39    5   38       1
    40    5   39       1
    41    6   40       1
    42    6   41       1
    43    6   42       1
    44    7   43       1
    45    7   44       1
    46   10   45       1
    47   11   46       1
    48   13   47       1
    49   13   48       1
    50   13   49       1
    51   14   50       1
    52   17   51       1
    53   17   52       1
    54   17   53       1
    55   18   54       1
    56   18   55       1
    57   18   56       1
    58   20   57       1
    59   22   58       1
    60   22   59       1
    61   22   60       1
    62   23   61       1
    63   24   62       1
    64   27   63       1
    65   27   64       1
    66   28   65       1
    67   29   66       1
    68   30   67       1
    69   30   68       1
    70   31   69       1
@<TRIPOS>SUBSTRUCTURE
     1 T08501      1 GROUP             4 A     T08     0 **** T08 A 501
