@<TRIPOS>MOLECULE
3cis_ATP_3_ligand
   43    45     1     0     0
SMALL
NO_CHARGES


@<TRIPOS>ATOM
     1 PG         -37.6790    21.0400   164.0110 P.3          1 ATP2101   0.0000
     2 O1G        -37.9740    19.5070   163.5770 O.co2        1 ATP2101   0.0000
     3 O2G        -38.5070    21.4610   165.1710 O.co2        1 ATP2101  -1.0000
     4 O3G        -36.0960    21.0720   164.3630 O.co2        1 ATP2101  -1.0000
     5 PB         -39.0660    21.7380   161.6340 P.3          1 ATP2101   0.0000
     6 O1B        -39.6750    23.0410   161.2960 O.co2        1 ATP2101   0.0000
     7 O2B        -39.9420    20.6280   162.0720 O.co2        1 ATP2101  -1.0000
     8 O3B        -37.8940    21.9840   162.7160 O.3          1 ATP2101   0.0000
     9 PA         -37.7570    19.7430   160.0300 P.3          1 ATP2101   0.0000
    10 O1A        -36.3250    19.6750   159.6580 O.co2        1 ATP2101   0.0000
    11 O2A        -38.2630    18.8640   161.1050 O.co2        1 ATP2101  -1.0000
    12 O3A        -38.1960    21.2750   160.3400 O.3          1 ATP2101   0.0000
    13 O5'        -38.6070    19.4660   158.6870 O.3          1 ATP2101   0.0000
    14 C5'        -38.1310    19.9040   157.4160 C.3          1 ATP2101   0.0000
    15 C4'        -38.3390    18.8180   156.3730 C.3          1 ATP2101   0.0000
    16 O4'        -37.7010    17.6190   156.8690 O.3          1 ATP2101   0.0000
    17 C3'        -39.8190    18.4650   156.2610 C.3          1 ATP2101   0.0000
    18 O3'        -40.4600    19.2870   155.2780 O.3          1 ATP2101   0.0000
    19 C2'        -39.7420    17.0360   155.7570 C.3          1 ATP2101   0.0000
    20 O2'        -39.4480    17.0490   154.3620 O.3          1 ATP2101   0.0000
    21 C1'        -38.5360    16.4790   156.5100 C.3          1 ATP2101   0.0000
    22 N9         -38.9850    15.7770   157.7410 N.pl3        1 ATP2101   0.0000
    23 C8         -39.4260    16.3470   158.8650 C.2          1 ATP2101   0.0000
    24 N7         -39.7360    15.4000   159.7510 N.2          1 ATP2101   0.0000
    25 C5         -39.4910    14.2190   159.1920 C.ar         1 ATP2101   0.0000
    26 C6         -39.6160    12.9010   159.6230 C.ar         1 ATP2101   0.0000
    27 N6         -40.0680    12.6090   160.8390 N.pl3        1 ATP2101   0.0000
    28 N1         -39.2700    11.9180   158.7820 N.ar         1 ATP2101   0.0000
    29 C2         -38.8160    12.1910   157.5650 C.ar         1 ATP2101   0.0000
    30 N3         -38.6830    13.4320   157.1250 N.ar         1 ATP2101   0.0000
    31 C4         -39.0120    14.4610   157.9140 C.ar         1 ATP2101   0.0000
    32 H5'1       -37.1557    20.1144   157.4834 H            1 ATP2101   0.0000
    33 H5'2       -38.6310    20.7254   157.1415 H            1 ATP2101   0.0000
    34 H4'        -37.9627    19.0891   155.4870 H            1 ATP2101   0.0000
    35 H3'        -40.2802    18.5202   157.1466 H            1 ATP2101   0.0000
    36 H5         -41.4192    19.4191   155.5281 H            1 ATP2101   0.0000
    37 H2'        -40.5769    16.5236   155.9579 H            1 ATP2101   0.0000
    38 H7         -38.9325    16.2263   154.1223 H            1 ATP2101   0.0000
    39 H1'        -38.0252    15.8506   155.9233 H            1 ATP2101   0.0000
    40 H9         -39.5107    17.3315   159.0185 H            1 ATP2101   0.0000
    41 H10        -40.1492    11.6546   161.1264 H            1 ATP2101   0.0000
    42 H11        -40.3267    13.3438   161.4660 H            1 ATP2101   0.0000
    43 H12        -38.5663    11.4342   156.9609 H            1 ATP2101   0.0000
@<TRIPOS>BOND
     1    1    2      ar
     2    1    3      ar
     3    1    4      ar
     4    1    8       1
     5    5    6      ar
     6    5    7      ar
     7    5    8       1
     8    5   12       1
     9    9   10      ar
    10    9   11      ar
    11    9   12       1
    12    9   13       1
    13   13   14       1
    14   14   15       1
    15   15   16       1
    16   15   17       1
    17   16   21       1
    18   17   18       1
    19   17   19       1
    20   19   20       1
    21   19   21       1
    22   21   22       1
    23   22   23       1
    24   22   31       1
    25   23   24       2
    26   24   25       1
    27   25   26      ar
    28   25   31      ar
    29   26   27       1
    30   26   28      ar
    31   28   29      ar
    32   29   30      ar
    33   30   31      ar
    34   29   43       1
    35   27   42       1
    36   27   41       1
    37   23   40       1
    38   14   32       1
    39   14   33       1
    40   15   34       1
    41   17   35       1
    42   18   36       1
    43   19   37       1
    44   20   38       1
    45   21   39       1
@<TRIPOS>SUBSTRUCTURE
     1 ATP2101     1 GROUP             4 B     ATP     0 **** ATP B2101
