@<TRIPOS>MOLECULE
4yfy_1YJ_4_ligand
   53    55     1     0     0
SMALL
NO_CHARGES


@<TRIPOS>ATOM
     1 N3          34.5490    61.9140    34.9900 N.pl3        1 1YJ302   0.0000
     2 C2          34.5360    60.8150    34.1730 C.2          1 1YJ302   0.0000
     3 N1          34.0710    59.6370    34.6350 N.2          1 1YJ302   0.0000
     4 C8A         33.6470    59.5220    35.9150 C.2          1 1YJ302   0.0000
     5 C4A         33.6560    60.6210    36.7650 C.2          1 1YJ302   0.0000
     6 C4          34.1210    61.8450    36.2790 C.2          1 1YJ302   0.0000
     7 N8          33.1390    58.3320    36.3360 N.pl3        1 1YJ302   0.0000
     8 C7          32.4650    58.1470    37.6260 C.3          1 1YJ302   0.0000
     9 C6          32.9900    59.1380    38.6570 C.3          1 1YJ302   0.0000
    10 N5          33.1800    60.4590    38.0370 N.pl3        1 1YJ302   0.0000
    11 C9          34.3240    58.6770    39.2540 C.3          1 1YJ302   0.0000
    12 N10         34.2910    57.2860    39.6980 N.pl3        1 1YJ302   0.0000
    13 C4'         35.4110    56.5510    39.5340 C.ar         1 1YJ302   0.0000
    14 C3'         35.2790    55.1890    39.2550 C.ar         1 1YJ302   0.0000
    15 C2'         36.3910    54.3960    38.9710 C.ar         1 1YJ302   0.0000
    16 C1'         37.6670    54.9480    38.9400 C.ar         1 1YJ302   0.0000
    17 C6'         37.7790    56.3140    39.1930 C.ar         1 1YJ302   0.0000
    18 C5'         36.6790    57.1180    39.4710 C.ar         1 1YJ302   0.0000
    19 C11         38.8360    54.0250    38.6450 C.2          1 1YJ302   0.0000
    20 N           40.1290    54.3620    38.5100 N.am         1 1YJ302   0.0000
    21 CA          41.1590    53.3370    38.2060 C.3          1 1YJ302   0.0000
    22 C           42.3860    53.3820    39.0950 C.2          1 1YJ302   0.0000
    23 OX2         42.4660    54.1950    40.0480 O.co2        1 1YJ302   0.0000
    24 OX1         43.3130    52.5680    38.8620 O.co2        1 1YJ302  -1.0000
    25 CB          41.6370    53.2990    36.7340 C.3          1 1YJ302   0.0000
    26 CG          41.0770    54.3320    35.7500 C.3          1 1YJ302   0.0000
    27 CD          42.0810    55.0090    34.8210 C.2          1 1YJ302   0.0000
    28 OE1         42.0380    54.7710    33.5950 O.co2        1 1YJ302   0.0000
    29 OE2         42.9150    55.8480    35.2380 O.co2        1 1YJ302  -1.0000
    30 O11         38.5190    52.8560    38.5240 O.2          1 1YJ302   0.0000
    31 O4          34.1290    62.9640    37.0640 O.2          1 1YJ302   0.0000
    32 N2          34.9430    60.8520    32.8710 N.pl3        1 1YJ302   0.0000
    33 H1          34.8805    62.7864    34.6309 H            1 1YJ302   0.0000
    34 H2          33.2301    57.5397    35.7328 H            1 1YJ302   0.0000
    35 H3          32.6304    57.2162    37.9519 H            1 1YJ302   0.0000
    36 H4          31.4824    58.2884    37.5059 H            1 1YJ302   0.0000
    37 H5          32.3192    59.2217    39.3939 H            1 1YJ302   0.0000
    38 H6          32.9510    61.2741    38.5691 H            1 1YJ302   0.0000
    39 H7          34.5417    59.2582    40.0381 H            1 1YJ302   0.0000
    40 H8          35.0364    58.7743    38.5590 H            1 1YJ302   0.0000
    41 H9          33.4685    56.8925    40.1086 H            1 1YJ302   0.0000
    42 H3'         34.3692    54.7739    39.2589 H            1 1YJ302   0.0000
    43 H2'         36.2693    53.4205    38.7878 H            1 1YJ302   0.0000
    44 H6'         38.6869    56.7328    39.1738 H            1 1YJ302   0.0000
    45 H5'         36.7993    58.0988    39.6248 H            1 1YJ302   0.0000
    46 H14         40.4022    55.3181    38.6159 H            1 1YJ302   0.0000
    47 HA          40.7263    52.4520    38.3781 H            1 1YJ302   0.0000
    48 HB1         41.4075    52.3949    36.3735 H            1 1YJ302   0.0000
    49 HB2         42.6306    53.4113    36.7445 H            1 1YJ302   0.0000
    50 HG1         40.6287    55.0481    36.2850 H            1 1YJ302   0.0000
    51 HG2         40.3994    53.8695    35.1783 H            1 1YJ302   0.0000
    52 H20         34.9146    60.0217    32.3145 H            1 1YJ302   0.0000
    53 H21         35.2696    61.7095    32.4734 H            1 1YJ302   0.0000
@<TRIPOS>BOND
     1    1    2       1
     2    1    6       1
     3    2    3       2
     4    2   32       1
     5    3    4       1
     6    4    5       2
     7    4    7       1
     8    5    6       1
     9    5   10       1
    10    6   31       2
    11    7    8       1
    12    8    9       1
    13    9   10       1
    14    9   11       1
    15   11   12       1
    16   12   13       1
    17   13   14      ar
    18   13   18      ar
    19   14   15      ar
    20   15   16      ar
    21   16   17      ar
    22   16   19       1
    23   17   18      ar
    24   19   20      am
    25   19   30       2
    26   20   21       1
    27   21   22       1
    28   21   25       1
    29   22   23      ar
    30   22   24      ar
    31   25   26       1
    32   26   27       1
    33   27   28      ar
    34   27   29      ar
    35    1   33       1
    36    7   34       1
    37    8   35       1
    38    8   36       1
    39    9   37       1
    40   10   38       1
    41   11   39       1
    42   11   40       1
    43   12   41       1
    44   14   42       1
    45   15   43       1
    46   17   44       1
    47   18   45       1
    48   20   46       1
    49   21   47       1
    50   32   53       1
    51   25   48       1
    52   25   49       1
    53   26   50       1
    54   26   51       1
    55   32   52       1
@<TRIPOS>SUBSTRUCTURE
     1 1YJ302      1 GROUP             4 B     1YJ     0 **** 1YJ B 302
