@<TRIPOS>MOLECULE
1xdp_ATP_2_ligand
   43    45     1     0     0
SMALL
NO_CHARGES


@<TRIPOS>ATOM
     1 PG           0.4760   -43.5880    55.3690 P.3          1 ATP704   0.0000
     2 O1G          1.0400   -43.6250    56.8120 O.co2        1 ATP704   0.0000
     3 O2G          1.0900   -42.5890    54.3330 O.co2        1 ATP704  -1.0000
     4 O3G          0.5360   -44.9940    54.7060 O.co2        1 ATP704  -1.0000
     5 PB          -2.3560   -44.2800    55.8170 P.3          1 ATP704   0.0000
     6 O1B         -3.7270   -44.0640    55.2160 O.co2        1 ATP704   0.0000
     7 O2B         -2.0210   -45.5780    56.5530 O.co2        1 ATP704  -1.0000
     8 O3B         -1.1400   -43.3280    55.3270 O.3          1 ATP704   0.0000
     9 PA          -2.3320   -42.8500    58.4590 P.3          1 ATP704   0.0000
    10 O1A         -2.0750   -41.3990    58.5440 O.co2        1 ATP704   0.0000
    11 O2A         -1.9250   -43.9080    59.6080 O.co2        1 ATP704  -1.0000
    12 O3A         -2.9780   -43.4210    57.1540 O.3          1 ATP704   0.0000
    13 O5'         -3.7930   -42.4070    58.9100 O.3          1 ATP704   0.0000
    14 C5'         -5.0440   -42.7230    59.1680 C.3          1 ATP704   0.0000
    15 C4'         -6.1680   -43.2450    59.9140 C.3          1 ATP704   0.0000
    16 O4'         -6.6610   -42.3750    61.0420 O.3          1 ATP704   0.0000
    17 C3'         -7.1260   -43.1490    58.7700 C.3          1 ATP704   0.0000
    18 O3'         -7.2140   -44.2110    57.7940 O.3          1 ATP704   0.0000
    19 C2'         -8.4800   -42.7220    59.3750 C.3          1 ATP704   0.0000
    20 O2'         -9.4410   -43.7030    59.3710 O.3          1 ATP704   0.0000
    21 C1'         -8.1540   -42.1960    60.8250 C.3          1 ATP704   0.0000
    22 N9          -8.5500   -40.8240    61.1450 N.pl3        1 ATP704   0.0000
    23 C8          -8.1990   -40.1120    62.3290 C.2          1 ATP704   0.0000
    24 N7          -8.6530   -38.8710    62.3430 N.2          1 ATP704   0.0000
    25 C5          -9.3520   -38.7940    61.0950 C.ar         1 ATP704   0.0000
    26 C6         -10.0800   -37.7010    60.3900 C.ar         1 ATP704   0.0000
    27 N6         -10.1990   -36.4770    60.9970 N.pl3        1 ATP704   0.0000
    28 N1         -10.6910   -38.0180    59.1220 N.ar         1 ATP704   0.0000
    29 C2         -10.5420   -39.2600    58.5640 C.ar         1 ATP704   0.0000
    30 N3          -9.8740   -40.3250    59.0870 N.ar         1 ATP704   0.0000
    31 C4          -9.2560   -39.9780    60.3430 C.ar         1 ATP704   0.0000
    32 H5'1        -5.1904   -43.2747    58.3469 H            1 ATP704   0.0000
    33 H5'2        -5.4209   -41.8077    59.0261 H            1 ATP704   0.0000
    34 H4'         -6.0211   -44.1907    60.2041 H            1 ATP704   0.0000
    35 H3'         -6.8192   -42.3522    58.2495 H            1 ATP704   0.0000
    36 H5          -6.9877   -45.0827    58.2286 H            1 ATP704   0.0000
    37 H2'         -8.8259   -41.9514    58.8397 H            1 ATP704   0.0000
    38 H7          -9.6208   -43.9897    58.4300 H            1 ATP704   0.0000
    39 H1'         -8.6222   -42.7984    61.4714 H            1 ATP704   0.0000
    40 H9          -7.6636   -40.5111    63.0734 H            1 ATP704   0.0000
    41 H10        -10.6849   -35.7350    60.5351 H            1 ATP704   0.0000
    42 H11         -9.7999   -36.3265    61.9015 H            1 ATP704   0.0000
    43 H12        -10.9722   -39.4004    57.6722 H            1 ATP704   0.0000
@<TRIPOS>BOND
     1    1    2      ar
     2    1    3      ar
     3    1    4      ar
     4    1    8       1
     5    5    6      ar
     6    5    7      ar
     7    5    8       1
     8    5   12       1
     9    9   10      ar
    10    9   11      ar
    11    9   12       1
    12    9   13       1
    13   13   14       1
    14   14   15       1
    15   15   16       1
    16   15   17       1
    17   16   21       1
    18   17   18       1
    19   17   19       1
    20   19   20       1
    21   19   21       1
    22   21   22       1
    23   22   23       1
    24   22   31       1
    25   23   24       2
    26   24   25       1
    27   25   26      ar
    28   25   31      ar
    29   26   27       1
    30   26   28      ar
    31   28   29      ar
    32   29   30      ar
    33   30   31      ar
    34   29   43       1
    35   27   42       1
    36   27   41       1
    37   23   40       1
    38   14   32       1
    39   14   33       1
    40   15   34       1
    41   17   35       1
    42   18   36       1
    43   19   37       1
    44   20   38       1
    45   21   39       1
@<TRIPOS>SUBSTRUCTURE
     1 ATP704      1 GROUP             4 B     ATP     0 **** ATP B 704
