@<TRIPOS>MOLECULE
4foj_C2E_1_ligand
   70    76     1     0     0
SMALL
NO_CHARGES


@<TRIPOS>ATOM
     1 P1          -0.4170    23.7690    -1.3480 P.3          1 C2E701   0.0000
     2 O2P          0.8300    24.5470    -1.5910 O.3          1 C2E701   0.0000
     3 O1P         -1.3320    23.3720    -2.4790 O.2          1 C2E701   0.0000
     4 O5'          0.0210    22.4960    -0.5090 O.3          1 C2E701   0.0000
     5 C5'         -0.8760    21.4290    -0.1500 C.3          1 C2E701   0.0000
     6 C4'         -0.1300    20.3500     0.5500 C.3          1 C2E701   0.0000
     7 O4'          0.8600    19.8830    -0.4070 O.3          1 C2E701   0.0000
     8 C3'          0.6970    20.7350     1.7620 C.3          1 C2E701   0.0000
     9 O3'         -0.0780    20.7860     2.9460 O.3          1 C2E701   0.0000
    10 C2'          1.7080    19.6340     1.7760 C.3          1 C2E701   0.0000
    11 O2'          1.1390    18.3950     2.2910 O.3          1 C2E701   0.0000
    12 C1'          2.0110    19.4440     0.2960 C.3          1 C2E701   0.0000
    13 N9           3.1570    20.2860    -0.1350 N.pl3        1 C2E701   0.0000
    14 C8           3.1410    21.5190    -0.6320 C.2          1 C2E701   0.0000
    15 N7           4.3830    21.8970    -0.9760 N.2          1 C2E701   0.0000
    16 C5           5.2000    20.8490    -0.6570 C.2          1 C2E701   0.0000
    17 C6           6.5780    20.6540    -0.7640 C.2          1 C2E701   0.0000
    18 O6           7.3730    21.5240    -1.1920 O.2          1 C2E701   0.0000
    19 N1           7.0240    19.4620    -0.3370 N.pl3        1 C2E701   0.0000
    20 C2           6.2480    18.4760     0.1340 C.2          1 C2E701   0.0000
    21 N2           6.7820    17.2990     0.5230 N.pl3        1 C2E701   0.0000
    22 N3           4.9000    18.6220     0.2510 N.2          1 C2E701   0.0000
    23 C4           4.4060    19.8200    -0.1390 C.2          1 C2E701   0.0000
    24 P11         -0.2470    22.1100     3.7650 P.3          1 C2E701   0.0000
    25 O21         -0.9120    21.7300     5.0690 O.3          1 C2E701   0.0000
    26 O11          1.0320    22.9180     3.7970 O.2          1 C2E701   0.0000
    27 O5A         -1.3050    22.9090     2.8860 O.3          1 C2E701   0.0000
    28 C5A         -1.6650    24.2250     3.2110 C.3          1 C2E701   0.0000
    29 C4A         -1.9960    24.9590     1.9270 C.3          1 C2E701   0.0000
    30 O4A         -2.4020    26.2790     2.2380 O.3          1 C2E701   0.0000
    31 C3A         -0.8480    25.0660     0.9360 C.3          1 C2E701   0.0000
    32 O3A         -1.3590    24.5930    -0.3180 O.3          1 C2E701   0.0000
    33 C2A         -0.4180    26.5060     0.9530 C.3          1 C2E701   0.0000
    34 O2A         -0.2800    26.9940    -0.3790 O.3          1 C2E701   0.0000
    35 C1A         -1.5300    27.2450     1.6500 C.3          1 C2E701   0.0000
    36 N91         -1.0780    28.1120     2.7640 N.pl3        1 C2E701   0.0000
    37 C81         -1.4940    29.3520     3.0300 C.2          1 C2E701   0.0000
    38 N71         -0.9450    29.8430     4.1900 N.2          1 C2E701   0.0000
    39 C51         -0.1750    28.8340     4.6700 C.2          1 C2E701   0.0000
    40 C61          0.6710    28.6390     5.7700 C.2          1 C2E701   0.0000
    41 O61          0.8360    29.6100     6.6650 O.2          1 C2E701   0.0000
    42 N11          1.3000    27.4380     5.9110 N.pl3        1 C2E701   0.0000
    43 C21          1.1500    26.4420     5.0120 C.2          1 C2E701   0.0000
    44 N21          1.8170    25.3150     5.2580 N.pl3        1 C2E701   0.0000
    45 N31          0.3990    26.5480     3.9310 N.2          1 C2E701   0.0000
    46 C41         -0.2690    27.7280     3.7390 C.2          1 C2E701   0.0000
    47 H2P          1.6188    24.0194    -1.2758 H            1 C2E701   0.0000
    48 H5'1        -1.2964    21.0574    -0.9778 H            1 C2E701   0.0000
    49 H5'2        -1.5884    21.7849     0.4548 H            1 C2E701   0.0000
    50 H4'         -0.7528    19.6042     0.7863 H            1 C2E701   0.0000
    51 H3'          1.1472    21.6143     1.6067 H            1 C2E701   0.0000
    52 H2'          2.5274    19.8980     2.2849 H            1 C2E701   0.0000
    53 H7           0.1627    18.3623     2.0770 H            1 C2E701   0.0000
    54 H1'          2.1931    18.4807     0.0988 H            1 C2E701   0.0000
    55 H9           2.3221    22.0837    -0.7349 H            1 C2E701   0.0000
    56 H10          8.0097    19.2973    -0.3731 H            1 C2E701   0.0000
    57 H11          6.1902    16.5726     0.8724 H            1 C2E701   0.0000
    58 H12          7.7694    17.1534     0.4618 H            1 C2E701   0.0000
    59 H13         -1.7830    22.2142     5.1525 H            1 C2E701   0.0000
    60 H5A1        -0.9037    24.6794     3.6735 H            1 C2E701   0.0000
    61 H5A2        -2.4641    24.2183     3.8122 H            1 C2E701   0.0000
    62 H4A         -2.7578    24.4896     1.4806 H            1 C2E701   0.0000
    63 H3A         -0.0907    24.4842     1.2328 H            1 C2E701   0.0000
    64 H2A          0.4406    26.6097     1.4551 H            1 C2E701   0.0000
    65 H19         -0.0159    26.2426    -0.9836 H            1 C2E701   0.0000
    66 H1A         -2.0370    27.7924     0.9842 H            1 C2E701   0.0000
    67 H21         -2.1305    29.8636     2.4529 H            1 C2E701   0.0000
    68 H22          1.8905    27.2901     6.7044 H            1 C2E701   0.0000
    69 H23          1.7442    24.5429     4.6267 H            1 C2E701   0.0000
    70 H24          2.3904    25.2413     6.0739 H            1 C2E701   0.0000
@<TRIPOS>BOND
     1    1    2       1
     2    1    3       2
     3    1    4       1
     4    1   32       1
     5    4    5       1
     6    5    6       1
     7    6    7       1
     8    6    8       1
     9    7   12       1
    10    8    9       1
    11    8   10       1
    12    9   24       1
    13   10   11       1
    14   10   12       1
    15   12   13       1
    16   13   14       1
    17   13   23       1
    18   14   15       2
    19   15   16       1
    20   16   17       1
    21   16   23       2
    22   17   18       2
    23   17   19       1
    24   19   20       1
    25   20   21       1
    26   20   22       2
    27   22   23       1
    28   24   25       1
    29   24   26       2
    30   24   27       1
    31   27   28       1
    32   28   29       1
    33   29   30       1
    34   29   31       1
    35   30   35       1
    36   31   32       1
    37   31   33       1
    38   33   34       1
    39   33   35       1
    40   35   36       1
    41   36   37       1
    42   36   46       1
    43   37   38       2
    44   38   39       1
    45   39   40       1
    46   39   46       2
    47   40   41       2
    48   40   42       1
    49   42   43       1
    50   43   44       1
    51   43   45       2
    52   45   46       1
    53    2   47       1
    54    5   48       1
    55    5   49       1
    56    6   50       1
    57    8   51       1
    58   10   52       1
    59   11   53       1
    60   12   54       1
    61   14   55       1
    62   19   56       1
    63   21   57       1
    64   21   58       1
    65   25   59       1
    66   28   60       1
    67   28   61       1
    68   29   62       1
    69   31   63       1
    70   33   64       1
    71   34   65       1
    72   35   66       1
    73   37   67       1
    74   42   68       1
    75   44   69       1
    76   44   70       1
@<TRIPOS>SUBSTRUCTURE
     1 C2E701      1 GROUP             4 A     C2E     0 **** C2E A 701
