@<TRIPOS>MOLECULE
1gxf_FAD_2_ligand
   84    89     1     0     0
SMALL
NO_CHARGES


@<TRIPOS>ATOM
     1 PA          22.0010    10.0980   -16.7760 P.3          1 FAD1492   0.0000
     2 O1A         22.5570     9.4510   -17.9860 O.co2        1 FAD1492   0.0000
     3 O2A         22.1410     9.3590   -15.5210 O.co2        1 FAD1492  -1.0000
     4 O5B         20.4600    10.3900   -17.0080 O.3          1 FAD1492   0.0000
     5 C5B         19.8250    10.3180   -18.2610 C.3          1 FAD1492   0.0000
     6 C4B         18.4350     9.7590   -17.9880 C.3          1 FAD1492   0.0000
     7 O4B         17.5540    10.3010   -18.9300 O.3          1 FAD1492   0.0000
     8 C3B         18.3930     8.2450   -18.2030 C.3          1 FAD1492   0.0000
     9 O3B         17.9140     7.6600   -16.9890 O.3          1 FAD1492   0.0000
    10 C2B         17.4030     8.0670   -19.3690 C.3          1 FAD1492   0.0000
    11 O2B         16.5630     6.9190   -19.3050 O.3          1 FAD1492   0.0000
    12 C1B         16.6260     9.3170   -19.4460 C.3          1 FAD1492   0.0000
    13 N9A         16.1580     9.8580   -20.7500 N.pl3        1 FAD1492   0.0000
    14 C8A         16.8360     9.8870   -21.9490 C.2          1 FAD1492   0.0000
    15 N7A         16.2250    10.6130   -22.8430 N.2          1 FAD1492   0.0000
    16 C5A         14.9320    10.6650   -22.3560 C.ar         1 FAD1492   0.0000
    17 C6A         13.7430    11.0860   -22.9370 C.ar         1 FAD1492   0.0000
    18 N6A         13.6950    11.5490   -24.1830 N.pl3        1 FAD1492   0.0000
    19 N1A         12.6360    11.0110   -22.1880 N.ar         1 FAD1492   0.0000
    20 C2A         12.7120    10.5480   -20.9490 C.ar         1 FAD1492   0.0000
    21 N3A         13.7670    10.1200   -20.2850 N.ar         1 FAD1492   0.0000
    22 C4A         14.8690    10.2090   -21.0680 C.ar         1 FAD1492   0.0000
    23 N1          31.1740     8.6110   -13.8210 N.2          1 FAD1492   0.0000
    24 C2          31.9140     8.7670   -12.6440 C.2          1 FAD1492   0.0000
    25 O2          32.0110     9.8730   -12.1220 O.2          1 FAD1492   0.0000
    26 N3          32.5300     7.6940   -12.0740 N.pl3        1 FAD1492   0.0000
    27 C4          32.4590     6.4460   -12.6070 C.2          1 FAD1492   0.0000
    28 O4          33.0240     5.5030   -12.0710 O.2          1 FAD1492   0.0000
    29 C4X         31.6610     6.3080   -13.8730 C.2          1 FAD1492   0.0000
    30 N5          31.5440     5.1230   -14.4460 N.2          1 FAD1492   0.0000
    31 C5X         30.8430     4.9530   -15.5590 C.ar         1 FAD1492   0.0000
    32 C6          30.7500     3.6680   -16.1150 C.ar         1 FAD1492   0.0000
    33 C7          30.0450     3.4640   -17.2410 C.ar         1 FAD1492   0.0000
    34 C7M         29.9230     2.0770   -17.8790 C.3          1 FAD1492   0.0000
    35 C8          29.3840     4.5840   -17.8620 C.ar         1 FAD1492   0.0000
    36 C8M         28.5960     4.3590   -19.1160 C.3          1 FAD1492   0.0000
    37 C9          29.4600     5.8200   -17.3400 C.ar         1 FAD1492   0.0000
    38 C9A         30.1950     6.0610   -16.1650 C.ar         1 FAD1492   0.0000
    39 N10         30.3150     7.2870   -15.5730 N.pl3        1 FAD1492   0.0000
    40 C10         31.0400     7.4440   -14.4290 C.2          1 FAD1492   0.0000
    41 C1'         29.6300     8.4830   -16.2090 C.3          1 FAD1492   0.0000
    42 C2'         28.4680     9.0120   -15.4030 C.3          1 FAD1492   0.0000
    43 O2'         27.6060     7.8950   -15.1910 O.3          1 FAD1492   0.0000
    44 C3'         27.7140    10.0270   -16.2370 C.3          1 FAD1492   0.0000
    45 O3'         28.6380    11.0740   -16.5090 O.3          1 FAD1492   0.0000
    46 C4'         26.5290    10.5520   -15.4930 C.3          1 FAD1492   0.0000
    47 O4'         25.6130     9.4840   -15.1810 O.3          1 FAD1492   0.0000
    48 C5'         25.6960    11.4690   -16.3470 C.3          1 FAD1492   0.0000
    49 O5'         24.5690    11.8190   -15.5260 O.3          1 FAD1492   0.0000
    50 P           23.3490    12.5270   -16.2530 P.3          1 FAD1492   0.0000
    51 O1P         22.3010    12.8530   -15.2580 O.co2        1 FAD1492   0.0000
    52 O2P         23.8760    13.6230   -17.0940 O.co2        1 FAD1492  -1.0000
    53 O3P         22.8810    11.3330   -17.1410 O.3          1 FAD1492   0.0000
    54 H5B1        20.3308     9.7107   -18.8737 H            1 FAD1492   0.0000
    55 H5B2        19.7604    11.2274   -18.6718 H            1 FAD1492   0.0000
    56 H4B         18.1409     9.9893   -17.0604 H            1 FAD1492   0.0000
    57 H3B         19.2971     7.8902   -18.4412 H            1 FAD1492   0.0000
    58 H5          17.0003     8.0125   -16.7869 H            1 FAD1492   0.0000
    59 H2B         17.9406     7.9973   -20.2093 H            1 FAD1492   0.0000
    60 H7          15.7206     7.1491   -18.8178 H            1 FAD1492   0.0000
    61 H1B         15.8455     9.2514   -18.8243 H            1 FAD1492   0.0000
    62 H8A         17.6973     9.4066   -22.1144 H            1 FAD1492   0.0000
    63 H6A1        12.8231    11.8447   -24.5733 H            1 FAD1492   0.0000
    64 H6A2        14.5308    11.6014   -24.7295 H            1 FAD1492   0.0000
    65 H2A         11.8475    10.5192   -20.4471 H            1 FAD1492   0.0000
    66 H13         33.0534     7.8296   -11.2328 H            1 FAD1492   0.0000
    67 H14         31.2109     2.8996   -15.6709 H            1 FAD1492   0.0000
    68 H7M1        29.3608     2.1377   -18.7037 H            1 FAD1492   0.0000
    69 H7M2        30.8330     1.7398   -18.1201 H            1 FAD1492   0.0000
    70 H7M3        29.4956     1.4479   -17.2298 H            1 FAD1492   0.0000
    71 H8M1        28.2013     5.2255   -19.4217 H            1 FAD1492   0.0000
    72 H8M2        29.1982     3.9975   -19.8278 H            1 FAD1492   0.0000
    73 H8M3        27.8624     3.7038   -18.9356 H            1 FAD1492   0.0000
    74 H21         28.9886     6.5772   -17.7921 H            1 FAD1492   0.0000
    75 H1'1        29.2923     8.2118   -17.1103 H            1 FAD1492   0.0000
    76 H1'2        30.3031     9.2153   -16.3118 H            1 FAD1492   0.0000
    77 H2'         28.7742     9.4065   -14.5366 H            1 FAD1492   0.0000
    78 H25         26.6602     8.2123   -15.1214 H            1 FAD1492   0.0000
    79 H3'         27.4165     9.6068   -17.0943 H            1 FAD1492   0.0000
    80 H27         28.4159    11.4944   -17.3887 H            1 FAD1492   0.0000
    81 H4'         26.8191    11.0193   -14.6578 H            1 FAD1492   0.0000
    82 H29         24.7263     9.6712   -15.6037 H            1 FAD1492   0.0000
    83 H5'1        25.3943    10.9992   -17.1766 H            1 FAD1492   0.0000
    84 H5'2        26.2161    12.2857   -16.5969 H            1 FAD1492   0.0000
@<TRIPOS>BOND
     1    1    2      ar
     2    1    3      ar
     3    1    4       1
     4    1   53       1
     5    4    5       1
     6    5    6       1
     7    6    7       1
     8    6    8       1
     9    7   12       1
    10    8    9       1
    11    8   10       1
    12   10   11       1
    13   10   12       1
    14   12   13       1
    15   13   14       1
    16   13   22       1
    17   14   15       2
    18   15   16       1
    19   16   17      ar
    20   16   22      ar
    21   17   18       1
    22   17   19      ar
    23   19   20      ar
    24   20   21      ar
    25   21   22      ar
    26   23   24       1
    27   23   40       2
    28   24   25       2
    29   24   26       1
    30   26   27       1
    31   27   28       2
    32   27   29       1
    33   29   30       2
    34   29   40       1
    35   30   31       1
    36   31   32      ar
    37   31   38      ar
    38   32   33      ar
    39   33   34       1
    40   33   35      ar
    41   35   36       1
    42   35   37      ar
    43   37   38      ar
    44   38   39       1
    45   39   40       1
    46   39   41       1
    47   41   42       1
    48   42   43       1
    49   42   44       1
    50   44   45       1
    51   44   46       1
    52   46   47       1
    53   46   48       1
    54   48   49       1
    55   49   50       1
    56   50   51      ar
    57   50   52      ar
    58   50   53       1
    59   48   84       1
    60    5   54       1
    61    5   55       1
    62    6   56       1
    63    8   57       1
    64    9   58       1
    65   10   59       1
    66   11   60       1
    67   12   61       1
    68   14   62       1
    69   18   63       1
    70   18   64       1
    71   20   65       1
    72   26   66       1
    73   32   67       1
    74   34   68       1
    75   34   69       1
    76   34   70       1
    77   36   71       1
    78   36   72       1
    79   36   73       1
    80   37   74       1
    81   41   75       1
    82   41   76       1
    83   42   77       1
    84   43   78       1
    85   44   79       1
    86   45   80       1
    87   46   81       1
    88   47   82       1
    89   48   83       1
@<TRIPOS>SUBSTRUCTURE
     1 FAD1492     1 GROUP             4 A     FAD     0 **** FAD A1492
