@<TRIPOS>MOLECULE
4c2j_COA_1_ligand
   80    82     1     0     0
SMALL
NO_CHARGES


@<TRIPOS>ATOM
     1 N1A         -5.7400   -40.4760    49.7730 N.ar         1 COA1402   0.0000
     2 C2A         -6.2920   -39.2980    49.3250 C.ar         1 COA1402   0.0000
     3 N3A         -6.2300   -39.0200    47.9740 N.ar         1 COA1402   0.0000
     4 C4A         -5.6370   -39.8760    47.1430 C.ar         1 COA1402   0.0000
     5 C5A         -5.1030   -41.0210    47.5940 C.ar         1 COA1402   0.0000
     6 C6A         -5.1570   -41.3240    48.9130 C.ar         1 COA1402   0.0000
     7 N6A         -4.6090   -42.4830    49.3770 N.pl3        1 COA1402   0.0000
     8 N7A         -4.6210   -41.6520    46.5200 N.2          1 COA1402   0.0000
     9 C8A         -4.8310   -40.9010    45.4350 C.2          1 COA1402   0.0000
    10 N9A         -5.4850   -39.7980    45.8320 N.pl3        1 COA1402   0.0000
    11 C1B         -5.9610   -38.6050    45.0920 C.3          1 COA1402   0.0000
    12 C2B         -4.7180   -37.8530    44.5900 C.3          1 COA1402   0.0000
    13 O2B         -4.2870   -36.9690    45.6120 O.3          1 COA1402   0.0000
    14 C3B         -5.2480   -37.1080    43.4100 C.3          1 COA1402   0.0000
    15 O3B         -6.0850   -36.0390    43.8770 O.3          1 COA1402   0.0000
    16 P3B         -5.8520   -34.4870    43.4630 P.3          1 COA1402   0.0000
    17 O7A         -7.0390   -33.6780    44.2370 O.co2        1 COA1402   0.0000
    18 O8A         -6.2330   -34.4190    41.8860 O.co2        1 COA1402  -1.0000
    19 O9A         -4.4840   -34.0170    43.8360 O.co2        1 COA1402  -1.0000
    20 C4B         -6.1690   -38.1640    42.7900 C.3          1 COA1402   0.0000
    21 O4B         -6.8030   -38.8140    43.9310 O.3          1 COA1402   0.0000
    22 C5B         -5.4600   -39.2860    42.0590 C.3          1 COA1402   0.0000
    23 O5B         -4.3600   -38.8890    41.2770 O.3          1 COA1402   0.0000
    24 P1A         -2.9500   -39.7100    41.3550 P.3          1 COA1402   0.0000
    25 O1A         -1.8880   -38.5690    40.9040 O.co2        1 COA1402   0.0000
    26 O2A         -2.6210   -40.2770    42.6880 O.co2        1 COA1402  -1.0000
    27 O3A         -2.9230   -40.8750    40.2840 O.3          1 COA1402   0.0000
    28 P2A         -3.3930   -40.6750    38.7450 P.3          1 COA1402   0.0000
    29 O4A         -2.1100   -39.9990    37.8940 O.co2        1 COA1402   0.0000
    30 O5A         -4.6750   -39.9010    38.7460 O.co2        1 COA1402  -1.0000
    31 O6A         -3.5860   -42.2080    38.2960 O.3          1 COA1402   0.0000
    32 CBP         -5.0280   -44.1470    37.9180 C.3          1 COA1402   0.0000
    33 CCP         -4.7870   -42.8690    38.7510 C.3          1 COA1402   0.0000
    34 CDP         -6.0450   -45.0050    38.6810 C.3          1 COA1402   0.0000
    35 CEP         -5.5330   -43.7660    36.5410 C.3          1 COA1402   0.0000
    36 CAP         -3.6790   -44.8590    37.7600 C.3          1 COA1402   0.0000
    37 OAP         -3.0700   -44.9180    39.0600 O.3          1 COA1402   0.0000
    38 C9P         -3.8560   -46.2590    37.2290 C.2          1 COA1402   0.0000
    39 O9P         -4.3820   -46.4530    36.1260 O.2          1 COA1402   0.0000
    40 N8P         -3.3600   -47.2280    38.0350 N.am         1 COA1402   0.0000
    41 C7P         -3.4600   -48.6540    37.6660 C.3          1 COA1402   0.0000
    42 C6P         -2.2820   -49.0140    36.7700 C.3          1 COA1402   0.0000
    43 C5P         -2.5340   -50.3720    36.1220 C.2          1 COA1402   0.0000
    44 O5P         -3.6120   -50.6540    35.5480 O.2          1 COA1402   0.0000
    45 N4P         -1.5350   -51.2450    36.2710 N.am         1 COA1402   0.0000
    46 C3P         -1.6430   -52.6010    35.7390 C.3          1 COA1402   0.0000
    47 C2P         -2.5120   -53.2870    36.7370 C.3          1 COA1402   0.0000
    48 S1P         -3.1990   -54.7380    35.9410 S.3          1 COA1402   0.0000
    49 H2A         -6.7265   -38.6602    49.9609 H            1 COA1402   0.0000
    50 H6A1        -4.1728   -43.1196    48.7410 H            1 COA1402   0.0000
    51 H6A2        -4.6433   -42.6965    50.3533 H            1 COA1402   0.0000
    52 H8A         -4.5524   -41.1202    44.4999 H            1 COA1402   0.0000
    53 H1B         -6.4497   -38.0123    45.7322 H            1 COA1402   0.0000
    54 H2B         -3.9909   -38.4863    44.3250 H            1 COA1402   0.0000
    55 H7          -4.3100   -36.0291    45.2713 H            1 COA1402   0.0000
    56 H3B         -4.5297   -36.7996    42.7863 H            1 COA1402   0.0000
    57 H4B         -6.8539   -37.7349    42.2012 H            1 COA1402   0.0000
    58 H5B1        -6.1232   -39.7310    41.4572 H            1 COA1402   0.0000
    59 H5B2        -5.1350   -39.9423    42.7399 H            1 COA1402   0.0000
    60 HCP1        -5.5664   -42.2515    38.6448 H            1 COA1402   0.0000
    61 HCP2        -4.6857   -43.1151    39.7149 H            1 COA1402   0.0000
    62 HDP1        -6.2250   -45.8441    38.1677 H            1 COA1402   0.0000
    63 HDP2        -5.6764   -45.2374    39.5810 H            1 COA1402   0.0000
    64 HDP3        -6.8967   -44.4928    38.7917 H            1 COA1402   0.0000
    65 HEP1        -5.6888   -44.5939    36.0022 H            1 COA1402   0.0000
    66 HEP2        -6.3906   -43.2592    36.6289 H            1 COA1402   0.0000
    67 HEP3        -4.8529   -43.1935    36.0832 H            1 COA1402   0.0000
    68 HAP         -3.0946   -44.3363    37.1393 H            1 COA1402   0.0000
    69 H21         -2.1937   -44.4366    39.0397 H            1 COA1402   0.0000
    70 H8P         -2.9183   -46.9730    38.8952 H            1 COA1402   0.0000
    71 H7P1        -4.3165   -48.8148    37.1756 H            1 COA1402   0.0000
    72 H7P2        -3.4381   -49.2171    38.4921 H            1 COA1402   0.0000
    73 H6P1        -1.4466   -49.0558    37.3181 H            1 COA1402   0.0000
    74 H6P2        -2.1794   -48.3188    36.0585 H            1 COA1402   0.0000
    75 H4P         -0.7035   -50.9674    36.7522 H            1 COA1402   0.0000
    76 H3P1        -0.7451   -53.0378    35.6843 H            1 COA1402   0.0000
    77 H3P2        -2.0683   -52.5988    34.8339 H            1 COA1402   0.0000
    78 H2P1        -3.2481   -52.6754    37.0270 H            1 COA1402   0.0000
    79 H2P2        -1.9705   -53.5578    37.5329 H            1 COA1402   0.0000
    80 H1P         -3.7896   -55.2236    36.5855 H            1 COA1402   0.0000
@<TRIPOS>BOND
     1    1    2      ar
     2    1    6      ar
     3    2    3      ar
     4    3    4      ar
     5    4    5      ar
     6    4   10       1
     7    5    6      ar
     8    5    8       1
     9    6    7       1
    10    8    9       2
    11    9   10       1
    12   10   11       1
    13   11   12       1
    14   11   21       1
    15   12   13       1
    16   12   14       1
    17   14   15       1
    18   14   20       1
    19   15   16       1
    20   16   17      ar
    21   16   18      ar
    22   16   19      ar
    23   20   21       1
    24   20   22       1
    25   22   23       1
    26   23   24       1
    27   24   25      ar
    28   24   26      ar
    29   24   27       1
    30   27   28       1
    31   28   29      ar
    32   28   30      ar
    33   28   31       1
    34   31   33       1
    35   32   33       1
    36   32   34       1
    37   32   35       1
    38   32   36       1
    39   36   37       1
    40   36   38       1
    41   38   39       2
    42   38   40      am
    43   40   41       1
    44   41   42       1
    45   42   43       1
    46   43   44       2
    47   43   45      am
    48   45   46       1
    49   46   47       1
    50   47   48       1
    51    2   49       1
    52    7   50       1
    53    7   51       1
    54    9   52       1
    55   11   53       1
    56   12   54       1
    57   13   55       1
    58   14   56       1
    59   48   80       1
    60   47   79       1
    61   20   57       1
    62   22   58       1
    63   22   59       1
    64   47   78       1
    65   46   77       1
    66   33   60       1
    67   33   61       1
    68   34   62       1
    69   34   63       1
    70   34   64       1
    71   35   65       1
    72   35   66       1
    73   35   67       1
    74   36   68       1
    75   37   69       1
    76   40   70       1
    77   41   71       1
    78   41   72       1
    79   42   73       1
    80   42   74       1
    81   45   75       1
    82   46   76       1
@<TRIPOS>SUBSTRUCTURE
     1 COA1402     1 GROUP             4 A     COA     0 **** COA A1402
