@<TRIPOS>MOLECULE
2dld_OXM_1_ligand
    8     7     1     0     0
SMALL
NO_CHARGES


@<TRIPOS>ATOM
     1 C1           1.1530    37.6390    21.4360 C.2          1 OXM402   0.0000
     2 N1           0.9745    36.3092    21.5072 N.am         1 OXM402   0.0000
     3 O1           1.6337    38.2509    22.4224 O.2          1 OXM402   0.0000
     4 C2           1.0920    38.3160    20.2340 C.2          1 OXM402   0.0000
     5 O2           1.3050    37.6780    19.1570 O.co2        1 OXM402   0.0000
     6 O3           0.2780    39.2590    20.0520 O.co2        1 OXM402  -1.0000
     7 H1           0.5926    35.8135    20.7272 H            1 OXM402   0.0000
     8 H2           1.2236    35.8152    22.3402 H            1 OXM402   0.0000
@<TRIPOS>BOND
     1    1    2      am
     2    1    3       2
     3    1    4       1
     4    4    5      ar
     5    4    6      ar
     6    2    7       1
     7    2    8       1
@<TRIPOS>SUBSTRUCTURE
     1 OXM402      1 GROUP             4 A     OXM     0 **** OXM A 402
