@<TRIPOS>MOLECULE
2y1x_845_2_ligand
   57    61     1     0     0
SMALL
NO_CHARGES


@<TRIPOS>ATOM
     1 N1          30.4290   -16.9200   -22.6990 N.pl3        1 8451002   0.0000
     2 C2          31.6090   -17.3840   -23.3430 C.2          1 8451002   0.0000
     3 C3          32.1740   -16.2990   -24.0080 C.2          1 8451002   0.0000
     4 C4          31.3470   -15.1910   -23.7690 C.2          1 8451002   0.0000
     5 N5          30.2880   -15.6020   -22.9650 N.2          1 8451002   0.0000
     6 C6          29.6180   -17.6160   -21.9680 C.ar         1 8451002   0.0000
     7 C7          29.8720   -17.7230   -20.5730 C.ar         1 8451002   0.0000
     8 C8          29.0110   -18.4740   -19.7490 C.ar         1 8451002   0.0000
     9 C9          27.8910   -19.1310   -20.2980 C.ar         1 8451002   0.0000
    10 C10         27.6050   -19.0480   -21.6870 C.ar         1 8451002   0.0000
    11 C11         28.4820   -18.2810   -22.5220 C.ar         1 8451002   0.0000
    12 C12         32.1670   -18.6830   -23.3790 C.2          1 8451002   0.0000
    13 C13         26.3640   -19.7840   -22.2850 C.3          1 8451002   0.0000
    14 N14         25.2870   -20.1760   -21.3400 N.am         1 8451002   0.0000
    15 C15         31.5510   -13.7580   -24.3030 C.3          1 8451002   0.0000
    16 F16         32.8620   -13.5010   -24.5740 F            1 8451002   0.0000
    17 F17         31.1100   -12.8460   -23.3870 F            1 8451002   0.0000
    18 F18         30.8490   -13.5860   -25.4420 F            1 8451002   0.0000
    19 C19         24.5490   -19.2670   -20.6290 C.2          1 8451002   0.0000
    20 C20         23.8440   -19.7700   -19.3540 C.3          1 8451002   0.0000
    21 O21         24.4680   -18.0720   -20.9530 O.2          1 8451002   0.0000
    22 N22         22.5710   -19.0340   -19.1560 N.4          1 8451002   1.0000
    23 C23         23.5480   -21.2880   -19.4210 C.3          1 8451002   0.0000
    24 N24         33.4890   -19.0560   -23.3010 N.2          1 8451002   0.0000
    25 N25         33.5390   -20.4000   -23.3940 N.2          1 8451002   0.0000
    26 C26         32.2470   -20.8870   -23.5330 C.2          1 8451002   0.0000
    27 O27         31.4230   -19.7980   -23.5150 O.2          1 8451002   0.0000
    28 C28         31.8030   -22.2160   -23.6810 C.ar         1 8451002   0.0000
    29 C29         32.5440   -23.1060   -24.5320 C.ar         1 8451002   0.0000
    30 C30         32.1410   -24.4670   -24.7480 C.ar         1 8451002   0.0000
    31 C31         30.9860   -24.9940   -24.1330 C.ar         1 8451002   0.0000
    32 C32         30.2180   -24.1470   -23.2750 C.ar         1 8451002   0.0000
    33 C33         30.6010   -22.7780   -23.0420 C.ar         1 8451002   0.0000
    34 C34         29.6550   -22.2430   -22.1720 C.2          1 8451002   0.0000
    35 C35         28.7450   -23.2600   -21.9030 C.2          1 8451002   0.0000
    36 N36         29.0680   -24.4520   -22.5770 N.pl3        1 8451002   0.0000
    37 H1          33.0120   -16.3078   -24.5536 H            1 8451002   0.0000
    38 H2          30.6657   -17.2629   -20.1750 H            1 8451002   0.0000
    39 H3          29.1954   -18.5415   -18.7685 H            1 8451002   0.0000
    40 H4          27.2897   -19.6627   -19.7015 H            1 8451002   0.0000
    41 H5          28.2966   -18.2108   -23.5021 H            1 8451002   0.0000
    42 H6          26.6934   -20.6176   -22.7284 H            1 8451002   0.0000
    43 H7          25.9576   -19.1801   -22.9706 H            1 8451002   0.0000
    44 H8          25.0916   -21.1490   -21.2171 H            1 8451002   0.0000
    45 H9          24.4393   -19.5950   -18.5698 H            1 8451002   0.0000
    46 H10         22.1197   -19.3656   -18.3275 H            1 8451002   0.0000
    47 H11         22.7619   -18.0568   -19.0633 H            1 8451002   0.0000
    48 H12         23.0919   -21.5762   -18.5790 H            1 8451002   0.0000
    49 H13         22.9546   -21.4777   -20.2032 H            1 8451002   0.0000
    50 H14         24.4063   -21.7907   -19.5240 H            1 8451002   0.0000
    51 H15         33.3665   -22.7665   -24.9883 H            1 8451002   0.0000
    52 H16         32.6892   -25.0522   -25.3455 H            1 8451002   0.0000
    53 H17         30.7099   -25.9415   -24.2941 H            1 8451002   0.0000
    54 H18         29.6338   -21.3106   -21.8113 H            1 8451002   0.0000
    55 H19         27.9535   -23.1560   -21.3008 H            1 8451002   0.0000
    56 H20         28.5759   -25.3223   -22.5550 H            1 8451002   0.0000
    57 H21         21.9735   -19.1836   -19.9438 H            1 8451002   0.0000
@<TRIPOS>BOND
     1    1    2       1
     2    1    5       1
     3    1    6       1
     4    2    3       2
     5    2   12       1
     6    3    4       1
     7    4    5       2
     8    4   15       1
     9    6    7      ar
    10    6   11      ar
    11    7    8      ar
    12    8    9      ar
    13    9   10      ar
    14   10   11      ar
    15   10   13       1
    16   12   24       2
    17   12   27       1
    18   13   14       1
    19   14   19      am
    20   15   16       1
    21   15   17       1
    22   15   18       1
    23   19   20       1
    24   19   21       2
    25   20   22       1
    26   20   23       1
    27   24   25       1
    28   25   26       2
    29   26   27       1
    30   26   28       1
    31   28   29      ar
    32   28   33      ar
    33   29   30      ar
    34   30   31      ar
    35   31   32      ar
    36   32   33      ar
    37   32   36       1
    38   33   34       1
    39   34   35       2
    40   35   36       1
    41    3   37       1
    42    7   38       1
    43    8   39       1
    44    9   40       1
    45   11   41       1
    46   13   42       1
    47   13   43       1
    48   14   44       1
    49   20   45       1
    50   22   46       1
    51   22   47       1
    52   23   48       1
    53   23   49       1
    54   23   50       1
    55   29   51       1
    56   30   52       1
    57   31   53       1
    58   34   54       1
    59   35   55       1
    60   36   56       1
    61   22   57       1
@<TRIPOS>SUBSTRUCTURE
     1 8451002     1 GROUP             4 B     845     0 **** 845 B1002
