@<TRIPOS>MOLECULE
2rhq_GAX_1_ligand
   50    53     1     0     0
SMALL
NO_CHARGES


@<TRIPOS>ATOM
     1 N6          92.3610    -9.9800    15.8350 N.ar         1 GAX352   0.0000
     2 N1         100.4610   -11.1280    18.2180 N.2          1 GAX352   0.0000
     3 C2          99.3420   -11.2410    18.9730 C.ar         1 GAX352   0.0000
     4 N2         101.9050   -11.5200    16.4960 N.pl3        1 GAX352   0.0000
     5 N3         103.7300   -11.7910    15.0110 N.2          1 GAX352   0.0000
     6 C4          97.5160   -10.0170    20.0730 C.ar         1 GAX352   0.0000
     7 N4          95.6460    -8.5170    19.1170 N.3          1 GAX352   0.0000
     8 C5          97.0990   -11.2790    20.5500 C.ar         1 GAX352   0.0000
     9 C6          97.7580   -12.4590    20.2450 C.ar         1 GAX352   0.0000
    10 O1          95.9300    -8.7130    21.6170 O.2          1 GAX352   0.0000
    11 O2          97.4090    -7.3620    20.4430 O.2          1 GAX352   0.0000
    12 O3         100.6120   -13.1600    17.3180 O.3          1 GAX352   0.0000
    13 C7         100.9560   -11.9990    17.3300 C.2          1 GAX352   0.0000
    14 C8         102.7370   -12.3140    15.7630 C.2          1 GAX352   0.0000
    15 C10        104.3940   -12.7580    14.3010 C.2          1 GAX352   0.0000
    16 C9         103.8710   -14.0250    14.5040 C.2          1 GAX352   0.0000
    17 S2         102.5150   -14.0220    15.6020 S.3          1 GAX352   0.0000
    18 C3          98.6480   -10.0530    19.2620 C.ar         1 GAX352   0.0000
    19 C1          98.9080   -12.4560    19.4690 C.ar         1 GAX352   0.0000
    20 S1          96.6790    -8.6040    20.3990 S.o2         1 GAX352   0.0000
    21 C14         95.9230    -7.5420    18.0390 C.3          1 GAX352   0.0000
    22 C13         95.2230    -7.9500    16.7360 C.3          1 GAX352   0.0000
    23 N5          93.8100    -8.3770    16.8950 N.pl3        1 GAX352   0.0000
    24 C12         93.5830    -9.2290    18.0830 C.3          1 GAX352   0.0000
    25 C11         94.2030    -8.6230    19.3470 C.3          1 GAX352   0.0000
    26 C15         93.3040    -9.0150    15.7230 C.ar         1 GAX352   0.0000
    27 C19         93.7480    -8.6560    14.4440 C.ar         1 GAX352   0.0000
    28 C18         93.2310    -9.2790    13.3060 C.ar         1 GAX352   0.0000
    29 C17         92.2730   -10.2640    13.4670 C.ar         1 GAX352   0.0000
    30 C16         91.8560   -10.5910    14.7530 C.ar         1 GAX352   0.0000
    31 H1         102.0027   -10.5284    16.4115 H            1 GAX352   0.0000
    32 H2          96.2897   -11.3231    21.1357 H            1 GAX352   0.0000
    33 H3          97.3991   -13.3264    20.5896 H            1 GAX352   0.0000
    34 H4         105.1717   -12.5692    13.7014 H            1 GAX352   0.0000
    35 H5         104.2311   -14.8503    14.0690 H            1 GAX352   0.0000
    36 H6          98.9815    -9.1965    18.8682 H            1 GAX352   0.0000
    37 H7          99.4048   -13.3020    19.2755 H            1 GAX352   0.0000
    38 H8          96.9096    -7.5004    17.8811 H            1 GAX352   0.0000
    39 H9          95.5921    -6.6411    18.3198 H            1 GAX352   0.0000
    40 H10         95.7339    -8.7094    16.3331 H            1 GAX352   0.0000
    41 H11         95.2432    -7.1674    16.1139 H            1 GAX352   0.0000
    42 H12         93.9926   -10.1266    17.9203 H            1 GAX352   0.0000
    43 H13         92.5983    -9.3324    18.2234 H            1 GAX352   0.0000
    44 H14         93.8162    -7.7167    19.5172 H            1 GAX352   0.0000
    45 H15         94.0244    -9.2146    20.1332 H            1 GAX352   0.0000
    46 H16         94.4439    -7.9447    14.3445 H            1 GAX352   0.0000
    47 H17         93.5468    -9.0185    12.3936 H            1 GAX352   0.0000
    48 H18         91.8870   -10.7328    12.6725 H            1 GAX352   0.0000
    49 H19         91.1615   -11.3002    14.8741 H            1 GAX352   0.0000
    50 H20        100.9982   -13.7890    16.6432 H            1 GAX352   0.0000
@<TRIPOS>BOND
     1    1   26      ar
     2    1   30      ar
     3    2    3       1
     4    2   13       2
     5    3   18      ar
     6    3   19      ar
     7    4   13       1
     8    4   14       1
     9    5   14       2
    10    5   15       1
    11    6    8      ar
    12    6   18      ar
    13    6   20       1
    14    7   20       1
    15    7   21       1
    16    7   25       1
    17    8    9      ar
    18    9   19      ar
    19   10   20       2
    20   11   20       2
    21   12   13       1
    22   14   17       1
    23   15   16       2
    24   16   17       1
    25   21   22       1
    26   22   23       1
    27   23   24       1
    28   23   26       1
    29   24   25       1
    30   26   27      ar
    31   27   28      ar
    32   28   29      ar
    33   29   30      ar
    34   30   49       1
    35    4   31       1
    36    8   32       1
    37    9   33       1
    38   15   34       1
    39   16   35       1
    40   18   36       1
    41   19   37       1
    42   21   38       1
    43   21   39       1
    44   22   40       1
    45   22   41       1
    46   24   42       1
    47   24   43       1
    48   25   44       1
    49   25   45       1
    50   27   46       1
    51   28   47       1
    52   29   48       1
    53   12   50       1
@<TRIPOS>SUBSTRUCTURE
     1 GAX352      1 GROUP             4 A     GAX     0 **** GAX A 352
