@<TRIPOS>MOLECULE
4xwt_U5P_1_ligand
   32    33     1     0     0
SMALL
NO_CHARGES


@<TRIPOS>ATOM
     1 N1          -1.1870   196.4420    23.4080 N.pl3        1 U5P606   0.0000
     2 C2          -1.5260   196.8280    24.7190 C.2          1 U5P606   0.0000
     3 N3          -2.5280   197.6870    24.9310 N.pl3        1 U5P606   0.0000
     4 C4          -3.2170   198.1980    23.9080 C.2          1 U5P606   0.0000
     5 C5          -2.9050   197.8450    22.6040 C.2          1 U5P606   0.0000
     6 C6          -1.8690   196.9510    22.3780 C.2          1 U5P606   0.0000
     7 O2          -0.8940   196.3660    25.6920 O.2          1 U5P606   0.0000
     8 O4          -4.1450   198.9940    24.1310 O.2          1 U5P606   0.0000
     9 C1'         -0.0840   195.5050    23.1780 C.3          1 U5P606   0.0000
    10 C2'         -0.4880   194.3770    22.2400 C.3          1 U5P606   0.0000
    11 O2'         -0.6910   193.1610    22.9630 O.3          1 U5P606   0.0000
    12 C3'          0.6710   194.2380    21.2790 C.3          1 U5P606   0.0000
    13 C4'          1.3410   195.5910    21.3020 C.3          1 U5P606   0.0000
    14 O3'          1.6080   193.2830    21.7720 O.3          1 U5P606   0.0000
    15 O4'          0.9980   196.1920    22.5500 O.3          1 U5P606   0.0000
    16 C5'          0.8070   196.4460    20.1700 C.3          1 U5P606   0.0000
    17 O5'         -0.6080   196.2970    20.0790 O.3          1 U5P606   0.0000
    18 P           -1.4290   197.0750    18.9420 P.3          1 U5P606   0.0000
    19 O1P         -0.7360   196.5570    17.7230 O.co2        1 U5P606   0.0000
    20 O2P         -2.8710   196.6620    19.0980 O.co2        1 U5P606  -1.0000
    21 O3P         -1.2210   198.5330    19.2650 O.co2        1 U5P606  -1.0000
    22 H1          -2.7642   197.9498    25.8665 H            1 U5P606   0.0000
    23 H2          -3.4195   198.2294    21.8375 H            1 U5P606   0.0000
    24 H3          -1.6322   196.6871    21.4430 H            1 U5P606   0.0000
    25 H1'          0.2210   195.1238    24.0507 H            1 U5P606   0.0000
    26 H2'         -1.3195   194.6244    21.7426 H            1 U5P606   0.0000
    27 H6          -1.3800   192.6066    22.4961 H            1 U5P606   0.0000
    28 H3'          0.3571   194.0011    20.3596 H            1 U5P606   0.0000
    29 H4'          2.3329   195.4901    21.2246 H            1 U5P606   0.0000
    30 H9           1.1279   192.5954    22.3167 H            1 U5P606   0.0000
    31 H5'1         1.2273   196.1580    19.3095 H            1 U5P606   0.0000
    32 H5'2         1.0293   197.4052    20.3449 H            1 U5P606   0.0000
@<TRIPOS>BOND
     1    1    2       1
     2    1    6       1
     3    1    9       1
     4    2    3       1
     5    2    7       2
     6    3    4       1
     7    4    5       1
     8    4    8       2
     9    5    6       2
    10    9   10       1
    11    9   15       1
    12   10   11       1
    13   10   12       1
    14   12   13       1
    15   12   14       1
    16   13   15       1
    17   13   16       1
    18   16   17       1
    19   17   18       1
    20   18   19      ar
    21   18   20      ar
    22   18   21      ar
    23    3   22       1
    24    5   23       1
    25    6   24       1
    26    9   25       1
    27   10   26       1
    28   11   27       1
    29   12   28       1
    30   13   29       1
    31   14   30       1
    32   16   31       1
    33   16   32       1
@<TRIPOS>SUBSTRUCTURE
     1 U5P606      1 GROUP             4 A     U5P     0 **** U5P A 606
