@<TRIPOS>MOLECULE
2bzg_SAH_1_ligand
   46    48     1     0     0
SMALL
NO_CHARGES


@<TRIPOS>ATOM
     1 N           22.4870    12.3830    18.4240 N.4          1 SAH1246   1.0000
     2 CA          21.7230    11.3160    19.1340 C.3          1 SAH1246   0.0000
     3 CB          21.3900    10.1320    18.2080 C.3          1 SAH1246   0.0000
     4 CG          22.5410     9.4700    17.4290 C.3          1 SAH1246   0.0000
     5 SD          22.0530     8.0380    16.3960 S.3          1 SAH1246   0.0000
     6 C           22.4910    10.8880    20.3910 C.2          1 SAH1246   0.0000
     7 O           22.0840     9.9790    21.1380 O.co2        1 SAH1246   0.0000
     8 OXT         23.5610    11.4680    20.6630 O.co2        1 SAH1246  -1.0000
     9 C5'         21.6700     8.9840    14.8890 C.3          1 SAH1246   0.0000
    10 C4'         20.2260     9.5370    14.7940 C.3          1 SAH1246   0.0000
    11 O4'         20.0290    10.1450    13.5150 O.3          1 SAH1246   0.0000
    12 C3'         19.0990     8.5000    14.9190 C.3          1 SAH1246   0.0000
    13 O3'         18.1740     8.8400    15.9520 O.3          1 SAH1246   0.0000
    14 C2'         18.4730     8.4510    13.5190 C.3          1 SAH1246   0.0000
    15 O2'         17.0940     8.1130    13.5060 O.3          1 SAH1246   0.0000
    16 C1'         18.7010     9.8670    13.0210 C.3          1 SAH1246   0.0000
    17 N9          18.8660    10.0560    11.5660 N.pl3        1 SAH1246   0.0000
    18 C8          19.5940     9.3130    10.6770 C.2          1 SAH1246   0.0000
    19 N7          19.5780     9.9160     9.4800 N.2          1 SAH1246   0.0000
    20 C5          18.8590    11.0730     9.5810 C.ar         1 SAH1246   0.0000
    21 C6          18.5120    12.0830     8.7020 C.ar         1 SAH1246   0.0000
    22 N6          18.8850    12.0960     7.4200 N.pl3        1 SAH1246   0.0000
    23 N1          17.7480    13.1200     9.1820 N.ar         1 SAH1246   0.0000
    24 C2          17.3280    13.1860    10.4980 C.ar         1 SAH1246   0.0000
    25 N3          17.6460    12.1800    11.3500 N.ar         1 SAH1246   0.0000
    26 C4          18.4150    11.1520    10.9020 C.ar         1 SAH1246   0.0000
    27 H1          22.2746    13.2717    18.8304 H            1 SAH1246   0.0000
    28 H2          23.4671    12.2036    18.5085 H            1 SAH1246   0.0000
    29 HA          20.8566    11.7158    19.4333 H            1 SAH1246   0.0000
    30 HB1         20.7267    10.4596    17.5351 H            1 SAH1246   0.0000
    31 HB2         20.9687     9.4230    18.7735 H            1 SAH1246   0.0000
    32 HG1         23.2236     9.1577    18.0897 H            1 SAH1246   0.0000
    33 HG2         22.9478    10.1601    16.8304 H            1 SAH1246   0.0000
    34 H5'1        21.8223     8.3850    14.1028 H            1 SAH1246   0.0000
    35 H5'2        22.2999     9.7594    14.8442 H            1 SAH1246   0.0000
    36 H4'         20.1018    10.2323    15.5020 H            1 SAH1246   0.0000
    37 H3'         19.5012     7.6080    15.1252 H            1 SAH1246   0.0000
    38 H12         17.7610     9.7282    15.7505 H            1 SAH1246   0.0000
    39 H2'         18.9815     7.8080    12.9464 H            1 SAH1246   0.0000
    40 H14         16.5458     8.9468    13.5714 H            1 SAH1246   0.0000
    41 H1'         18.0279    10.5022    13.3998 H            1 SAH1246   0.0000
    42 H16         20.0638     8.4556    10.8871 H            1 SAH1246   0.0000
    43 H17         18.6069    12.8509     6.8260 H            1 SAH1246   0.0000
    44 H18         19.4424    11.3509     7.0539 H            1 SAH1246   0.0000
    45 H19         16.7945    13.9687    10.8185 H            1 SAH1246   0.0000
    46 H20         22.2313    12.3889    17.4572 H            1 SAH1246   0.0000
@<TRIPOS>BOND
     1    1    2       1
     2    2    3       1
     3    2    6       1
     4    3    4       1
     5    4    5       1
     6    5    9       1
     7    6    7      ar
     8    6    8      ar
     9    9   10       1
    10   10   11       1
    11   10   12       1
    12   11   16       1
    13   12   13       1
    14   12   14       1
    15   14   15       1
    16   14   16       1
    17   16   17       1
    18   17   18       1
    19   17   26       1
    20   18   19       2
    21   19   20       1
    22   20   21      ar
    23   20   26      ar
    24   21   22       1
    25   21   23      ar
    26   23   24      ar
    27   24   25      ar
    28   25   26      ar
    29    1   27       1
    30    1   28       1
    31    2   29       1
    32    3   30       1
    33    3   31       1
    34    4   32       1
    35    4   33       1
    36    1   46       1
    37    9   34       1
    38    9   35       1
    39   10   36       1
    40   12   37       1
    41   13   38       1
    42   14   39       1
    43   15   40       1
    44   16   41       1
    45   18   42       1
    46   22   43       1
    47   22   44       1
    48   24   45       1
@<TRIPOS>SUBSTRUCTURE
     1 SAH1246     1 GROUP             4 A     SAH     0 **** SAH A1246
