@<TRIPOS>MOLECULE
1ycg_FMN_2_ligand
   50    52     1     0     0
SMALL
NO_CHARGES


@<TRIPOS>ATOM
     1 N1          97.3550    39.9790  -162.3330 N.2          1 FMN711   0.0000
     2 C2          95.9910    39.8990  -162.2940 C.2          1 FMN711   0.0000
     3 O2          95.2220    39.2370  -163.0240 O.2          1 FMN711   0.0000
     4 N3          95.2830    40.7020  -161.2380 N.pl3        1 FMN711   0.0000
     5 C4          95.9880    41.5490  -160.2790 C.2          1 FMN711   0.0000
     6 O4          95.2460    42.1440  -159.4680 O.2          1 FMN711   0.0000
     7 C4A         97.3970    41.5740  -160.3800 C.2          1 FMN711   0.0000
     8 N5          98.0900    42.3290  -159.5280 N.2          1 FMN711   0.0000
     9 C5A         99.5360    42.3940  -159.5670 C.ar         1 FMN711   0.0000
    10 C6         100.3260    43.1950  -158.6470 C.ar         1 FMN711   0.0000
    11 C7         101.8060    43.2100  -158.7450 C.ar         1 FMN711   0.0000
    12 C7M        102.3660    44.1230  -157.6560 C.3          1 FMN711   0.0000
    13 C8         102.4890    42.4130  -159.7900 C.ar         1 FMN711   0.0000
    14 C8M        103.9560    42.4310  -159.8730 C.3          1 FMN711   0.0000
    15 C9         101.7390    41.6430  -160.6840 C.ar         1 FMN711   0.0000
    16 C9A        100.2260    41.5800  -160.6480 C.ar         1 FMN711   0.0000
    17 N10         99.5420    40.7550  -161.5930 N.pl3        1 FMN711   0.0000
    18 C10         98.1280    40.7350  -161.4920 C.2          1 FMN711   0.0000
    19 C1'        100.1690    39.9410  -162.6600 C.3          1 FMN711   0.0000
    20 C2'        100.4590    40.6750  -163.9850 C.3          1 FMN711   0.0000
    21 O2'         99.2320    41.1600  -164.5280 O.3          1 FMN711   0.0000
    22 C3'        101.1070    39.6700  -164.8850 C.3          1 FMN711   0.0000
    23 O3'        102.3670    39.2460  -164.2820 O.3          1 FMN711   0.0000
    24 C4'        101.5330    40.1070  -166.2980 C.3          1 FMN711   0.0000
    25 O4'        102.1130    39.0130  -166.9500 O.3          1 FMN711   0.0000
    26 C5'        102.5460    41.2840  -166.3490 C.3          1 FMN711   0.0000
    27 O5'        102.3310    41.9320  -167.6290 O.3          1 FMN711   0.0000
    28 P          103.5960    42.6010  -168.2790 P.3          1 FMN711   0.0000
    29 O1P        103.0730    43.2100  -169.6040 O.co2        1 FMN711   0.0000
    30 O2P        104.0560    43.6660  -167.3760 O.co2        1 FMN711  -1.0000
    31 O3P        104.6840    41.5020  -168.5170 O.co2        1 FMN711  -1.0000
    32 H1          94.2853    40.6541  -161.1901 H            1 FMN711   0.0000
    33 H2          99.8690    43.7394  -157.9436 H            1 FMN711   0.0000
    34 H7M1       103.3641    44.1388  -157.7150 H            1 FMN711   0.0000
    35 H7M2       102.0099    45.0490  -157.7817 H            1 FMN711   0.0000
    36 H7M3       102.0906    43.7789  -156.7584 H            1 FMN711   0.0000
    37 H8M1       104.2544    41.8452  -160.6265 H            1 FMN711   0.0000
    38 H8M2       104.2693    43.3669  -160.0342 H            1 FMN711   0.0000
    39 H8M3       104.3426    42.0932  -159.0148 H            1 FMN711   0.0000
    40 H9         102.2230    41.1101  -161.3781 H            1 FMN711   0.0000
    41 H1'1        99.5572    39.1760  -162.8611 H            1 FMN711   0.0000
    42 H1'2       101.0367    39.5903  -162.3078 H            1 FMN711   0.0000
    43 H2'        101.0840    41.4383  -163.8215 H            1 FMN711   0.0000
    44 H13         99.0560    42.0819  -164.1827 H            1 FMN711   0.0000
    45 H3'        100.5056    38.8749  -164.9631 H            1 FMN711   0.0000
    46 H15        103.1046    39.8438  -164.5960 H            1 FMN711   0.0000
    47 H4'        100.7135    40.3758  -166.8040 H            1 FMN711   0.0000
    48 H17        102.3944    39.2844  -167.8704 H            1 FMN711   0.0000
    49 H5'1       103.4830    40.9406  -166.2851 H            1 FMN711   0.0000
    50 H5'2       102.3741    41.9246  -165.6007 H            1 FMN711   0.0000
@<TRIPOS>BOND
     1    1    2       1
     2    1   18       2
     3    2    3       2
     4    2    4       1
     5    4    5       1
     6    5    6       2
     7    5    7       1
     8    7    8       2
     9    7   18       1
    10    8    9       1
    11    9   10      ar
    12    9   16      ar
    13   10   11      ar
    14   11   12       1
    15   11   13      ar
    16   13   14       1
    17   13   15      ar
    18   15   16      ar
    19   16   17       1
    20   17   18       1
    21   17   19       1
    22   19   20       1
    23   20   21       1
    24   20   22       1
    25   22   23       1
    26   22   24       1
    27   24   25       1
    28   24   26       1
    29   26   27       1
    30   27   28       1
    31   28   29      ar
    32   28   30      ar
    33   28   31      ar
    34    4   32       1
    35   10   33       1
    36   12   34       1
    37   12   35       1
    38   12   36       1
    39   14   37       1
    40   14   38       1
    41   14   39       1
    42   15   40       1
    43   19   41       1
    44   19   42       1
    45   20   43       1
    46   21   44       1
    47   22   45       1
    48   23   46       1
    49   24   47       1
    50   25   48       1
    51   26   49       1
    52   26   50       1
@<TRIPOS>SUBSTRUCTURE
     1 FMN711      1 GROUP             4 B     FMN     0 **** FMN B 711
