@<TRIPOS>MOLECULE
1dhr_NAD_1_ligand
   70    74     1     0     0
SMALL
NO_CHARGES


@<TRIPOS>ATOM
     1 PA          29.1710    45.3280    34.3540 P.3          1 NAD241   0.0000
     2 O1A         30.1680    44.7400    33.3920 O.co2        1 NAD241   0.0000
     3 O2A         29.8050    45.3930    35.7300 O.co2        1 NAD241  -1.0000
     4 O5B         27.6860    44.6540    34.3280 O.3          1 NAD241   0.0000
     5 C5B         27.0360    44.3160    33.0600 C.3          1 NAD241   0.0000
     6 C4B         26.1830    43.1050    33.1690 C.3          1 NAD241   0.0000
     7 O4B         25.6910    42.8890    32.1410 O.3          1 NAD241   0.0000
     8 C3B         26.9020    41.8300    33.7030 C.3          1 NAD241   0.0000
     9 O3B         26.1710    41.3010    34.8520 O.3          1 NAD241   0.0000
    10 C2B         26.6220    40.8780    32.5220 C.3          1 NAD241   0.0000
    11 O2B         26.5440    39.5760    32.8110 O.3          1 NAD241   0.0000
    12 C1B         25.3670    41.4710    31.9900 C.3          1 NAD241   0.0000
    13 N9A         25.1860    41.0820    30.5700 N.pl3        1 NAD241   0.0000
    14 C8A         26.1330    41.1730    29.6150 C.2          1 NAD241   0.0000
    15 N7A         25.6550    40.7050    28.4640 N.2          1 NAD241   0.0000
    16 C5A         24.3140    40.2850    28.8520 C.ar         1 NAD241   0.0000
    17 C6A         23.1000    39.6220    28.1170 C.ar         1 NAD241   0.0000
    18 N6A         23.1330    39.2810    26.8000 N.pl3        1 NAD241   0.0000
    19 N1A         21.9740    39.3810    28.8080 N.ar         1 NAD241   0.0000
    20 C2A         22.0380    39.7500    30.1010 C.ar         1 NAD241   0.0000
    21 N3A         22.9920    40.3200    30.8480 N.ar         1 NAD241   0.0000
    22 C4A         24.1080    40.5490    30.1320 C.ar         1 NAD241   0.0000
    23 O3          28.8300    46.8180    33.9640 O.3          1 NAD241   0.0000
    24 PN          28.6720    48.1030    34.9100 P.3          1 NAD241   0.0000
    25 O1N         29.9130    48.6580    35.3920 O.co2        1 NAD241   0.0000
    26 O2N         27.7010    47.8650    35.9730 O.co2        1 NAD241  -1.0000
    27 O5D         28.0280    49.1650    33.8380 O.3          1 NAD241   0.0000
    28 C5D         26.5880    49.4230    33.7450 C.3          1 NAD241   0.0000
    29 C4D         26.3200    49.9220    32.3190 C.3          1 NAD241   0.0000
    30 O4D         27.0590    51.1810    32.2120 O.3          1 NAD241   0.0000
    31 C3D         26.9980    48.9880    31.1880 C.3          1 NAD241   0.0000
    32 O3D         26.3200    49.1900    29.9260 O.3          1 NAD241   0.0000
    33 C2D         28.4330    49.5570    31.1530 C.3          1 NAD241   0.0000
    34 O2D         28.9880    49.3640    29.8370 O.3          1 NAD241   0.0000
    35 C1D         28.1830    51.0330    31.3650 C.3          1 NAD241   0.0000
    36 N1N         29.4800    51.8080    31.5130 N.ar         1 NAD241   1.0000
    37 C2N         30.4340    51.4910    32.4790 C.ar         1 NAD241   0.0000
    38 C3N         31.5890    52.1490    32.6120 C.ar         1 NAD241   0.0000
    39 C7N         32.4620    51.6610    33.6830 C.2          1 NAD241   0.0000
    40 O7N         33.5780    52.2940    33.8460 O.2          1 NAD241   0.0000
    41 N7N         32.1380    50.6210    34.4730 N.am         1 NAD241   0.0000
    42 C4N         31.9750    53.3710    31.7200 C.ar         1 NAD241   0.0000
    43 C5N         30.8480    53.6240    30.7350 C.ar         1 NAD241   0.0000
    44 C6N         29.7360    52.8990    30.6510 C.ar         1 NAD241   0.0000
    45 H5B1        27.7416    44.1514    32.3708 H            1 NAD241   0.0000
    46 H5B2        26.4656    45.0866    32.7756 H            1 NAD241   0.0000
    47 H4B         25.4461    43.3192    33.8102 H            1 NAD241   0.0000
    48 H3B         27.8764    41.9677    33.8805 H            1 NAD241   0.0000
    49 H5          25.2394    41.0659    34.5749 H            1 NAD241   0.0000
    50 H2B         27.3421    41.0049    31.8399 H            1 NAD241   0.0000
    51 H7          25.5977    39.3396    33.0315 H            1 NAD241   0.0000
    52 H1B         24.5756    41.2141    32.5448 H            1 NAD241   0.0000
    53 H8A         27.0546    41.5368    29.7505 H            1 NAD241   0.0000
    54 H6A1        22.3333    38.8595    26.3725 H            1 NAD241   0.0000
    55 H6A2        23.9570    39.4519    26.2597 H            1 NAD241   0.0000
    56 H2A         21.1984    39.5586    30.6094 H            1 NAD241   0.0000
    57 H5D1        26.3192    50.1197    34.4100 H            1 NAD241   0.0000
    58 H5D2        26.0754    48.5819    33.9177 H            1 NAD241   0.0000
    59 H4D         25.3428    50.0528    32.1518 H            1 NAD241   0.0000
    60 H3D         26.9924    48.0248    31.4567 H            1 NAD241   0.0000
    61 H17         25.5619    48.5426    29.8475 H            1 NAD241   0.0000
    62 H2D         29.0120    49.1655    31.8682 H            1 NAD241   0.0000
    63 H19         29.9177    49.7313    29.8102 H            1 NAD241   0.0000
    64 H1D         27.8385    51.3348    30.4760 H            1 NAD241   0.0000
    65 H2N         30.2442    50.7333    33.1034 H            1 NAD241   0.0000
    66 H7N1        32.7669    50.3240    35.1915 H            1 NAD241   0.0000
    67 H7N2        31.2683    50.1452    34.3416 H            1 NAD241   0.0000
    68 H4N         32.8221    53.8983    31.7864 H            1 NAD241   0.0000
    69 H5N         30.9490    54.3922    30.1028 H            1 NAD241   0.0000
    70 H6N         29.0580    53.1336    29.9544 H            1 NAD241   0.0000
@<TRIPOS>BOND
     1    1    2      ar
     2    1    3      ar
     3    1    4       1
     4    1   23       1
     5    4    5       1
     6    5    6       1
     7    6    7       1
     8    6    8       1
     9    7   12       1
    10    8    9       1
    11    8   10       1
    12   10   11       1
    13   10   12       1
    14   12   13       1
    15   13   14       1
    16   13   22       1
    17   14   15       2
    18   15   16       1
    19   16   17      ar
    20   16   22      ar
    21   17   18       1
    22   17   19      ar
    23   19   20      ar
    24   20   21      ar
    25   21   22      ar
    26   23   24       1
    27   24   25      ar
    28   24   26      ar
    29   24   27       1
    30   27   28       1
    31   28   29       1
    32   29   30       1
    33   29   31       1
    34   30   35       1
    35   31   32       1
    36   31   33       1
    37   33   34       1
    38   33   35       1
    39   35   36       1
    40   36   37      ar
    41   36   44      ar
    42   37   38      ar
    43   38   39       1
    44   38   42      ar
    45   39   40       2
    46   39   41      am
    47   42   43      ar
    48   43   44      ar
    49   44   70       1
    50    5   45       1
    51    5   46       1
    52    6   47       1
    53    8   48       1
    54    9   49       1
    55   10   50       1
    56   11   51       1
    57   12   52       1
    58   14   53       1
    59   18   54       1
    60   18   55       1
    61   20   56       1
    62   43   69       1
    63   28   57       1
    64   28   58       1
    65   29   59       1
    66   31   60       1
    67   32   61       1
    68   33   62       1
    69   34   63       1
    70   35   64       1
    71   37   65       1
    72   41   66       1
    73   41   67       1
    74   42   68       1
@<TRIPOS>SUBSTRUCTURE
     1 NAD241      1 GROUP             4 A     NAD     0 **** NAD A 241
