@<TRIPOS>MOLECULE
1y4l_SVR_1_ligand
  120   127     1     0     0
SMALL
NO_CHARGES


@<TRIPOS>ATOM
     1 O35         15.2620    13.0450     8.8580 O.co2        1 SVR301   0.0000
     2 S31         14.6810    11.8970     8.1080 S.o2         1 SVR301   0.0000
     3 O36         13.2060    12.0650     8.0280 O.co2        1 SVR301   0.0000
     4 O34         15.2870    11.7620     6.7530 O.co2        1 SVR301  -1.0000
     5 C22         15.0150    10.6020     8.9460 C.ar         1 SVR301   0.0000
     6 C18         14.2860     9.4470     8.7550 C.ar         1 SVR301   0.0000
     7 C11         14.5750     8.3170     9.4970 C.ar         1 SVR301   0.0000
     8 S17         13.6390     7.0540     9.1280 S.o2         1 SVR301   0.0000
     9 O23         14.4310     5.9700     8.5020 O.co2        1 SVR301   0.0000
    10 O24         12.9400     6.5020    10.3220 O.co2        1 SVR301   0.0000
    11 O25         12.6340     7.5310     8.1460 O.co2        1 SVR301  -1.0000
    12 C16         16.0420    10.6770     9.8650 C.ar         1 SVR301   0.0000
    13 C10         16.3680     9.5750    10.6230 C.ar         1 SVR301   0.0000
    14 C15         17.4200     9.7130    11.5520 C.ar         1 SVR301   0.0000
    15 S21         18.2810    11.0830    11.7670 S.o2         1 SVR301   0.0000
    16 O28         18.8850    11.4710    10.4730 O.co2        1 SVR301   0.0000
    17 O29         17.4580    12.2070    12.2640 O.co2        1 SVR301   0.0000
    18 O30         19.3440    10.7840    12.7430 O.co2        1 SVR301  -1.0000
    19 C12         17.7350     8.5980    12.3180 C.ar         1 SVR301   0.0000
    20 C7          17.0310     7.4180    12.1610 C.ar         1 SVR301   0.0000
    21 C6          15.6320     8.3750    10.4490 C.ar         1 SVR301   0.0000
    22 C3          16.0020     7.2760    11.2340 C.ar         1 SVR301   0.0000
    23 N1          15.3190     6.0480    11.2000 N.am         1 SVR301   0.0000
    24 C2          15.8370     4.8320    11.1060 C.2          1 SVR301   0.0000
    25 O4          17.0230     4.6000    10.9890 O.2          1 SVR301   0.0000
    26 C5          14.8910     3.6810    11.1560 C.ar         1 SVR301   0.0000
    27 C8          13.9020     3.6820    12.1360 C.ar         1 SVR301   0.0000
    28 C9          15.0260     2.6220    10.2660 C.ar         1 SVR301   0.0000
    29 C14         14.1490     1.5500    10.3440 C.ar         1 SVR301   0.0000
    30 C20         13.1540     1.5490    11.3160 C.ar         1 SVR301   0.0000
    31 C27         12.2040     0.3930    11.3990 C.3          1 SVR301   0.0000
    32 C13         13.0270     2.6060    12.2060 C.ar         1 SVR301   0.0000
    33 N19         12.0150     2.5750    13.1700 N.am         1 SVR301   0.0000
    34 C26         10.7720     2.9230    12.8440 C.2          1 SVR301   0.0000
    35 O32         10.4670     3.2770    11.7170 O.2          1 SVR301   0.0000
    36 C33          9.7170     2.8570    13.9100 C.ar         1 SVR301   0.0000
    37 C37          8.3700     2.9480    13.5730 C.ar         1 SVR301   0.0000
    38 C38         10.0930     2.6920    15.2400 C.ar         1 SVR301   0.0000
    39 C40          9.1200     2.6240    16.2310 C.ar         1 SVR301   0.0000
    40 C42          7.7740     2.7170    15.8980 C.ar         1 SVR301   0.0000
    41 C39          7.4000     2.8730    14.5690 C.ar         1 SVR301   0.0000
    42 N41          6.0380     2.9770    14.2690 N.pl3        1 SVR301   0.0000
    43 C43          5.5950     3.5420    13.1470 C.2          1 SVR301   0.0000
    44 O45          6.3550     3.9920    12.3020 O.3          1 SVR301   0.0000
    45 N44          4.2770     3.5900    12.9760 N.2          1 SVR301   0.0000
    46 C46          3.7500     4.1860    11.8300 C.ar         1 SVR301   0.0000
    47 C47          3.8250     3.5780    10.5830 C.ar         1 SVR301   0.0000
    48 C48          3.1570     5.4350    11.9740 C.ar         1 SVR301   0.0000
    49 C50          2.6230     6.0910    10.8760 C.ar         1 SVR301   0.0000
    50 C52          2.6890     5.4820     9.6340 C.ar         1 SVR301   0.0000
    51 C49          3.2970     4.2410     9.4850 C.ar         1 SVR301   0.0000
    52 C51          3.3030     3.6650     8.1080 C.2          1 SVR301   0.0000
    53 O54          3.9790     2.7040     7.7860 O.2          1 SVR301   0.0000
    54 N53          2.4900     4.3310     7.3150 N.am         1 SVR301   0.0000
    55 C55          2.1680     4.1170     5.9810 C.ar         1 SVR301   0.0000
    56 C56          2.7220     3.1480     5.1500 C.ar         1 SVR301   0.0000
    57 C57          1.1820     4.9620     5.5420 C.ar         1 SVR301   0.0000
    58 C59          0.6430     5.9740     6.5150 C.3          1 SVR301   0.0000
    59 C60          0.7110     4.8890     4.2470 C.ar         1 SVR301   0.0000
    60 C62          1.2570     3.9410     3.4010 C.ar         1 SVR301   0.0000
    61 C58          2.2710     3.0970     3.8330 C.ar         1 SVR301   0.0000
    62 C61          2.7300     2.0790     2.8440 C.2          1 SVR301   0.0000
    63 O64          2.9650     2.3590     1.6790 O.2          1 SVR301   0.0000
    64 N63          2.7850     0.8570     3.3550 N.am         1 SVR301   0.0000
    65 C65          3.0610    -0.3190     2.6690 C.ar         1 SVR301   0.0000
    66 C67          1.9870    -0.6540     1.8660 C.ar         1 SVR301   0.0000
    67 C70          1.9840    -1.7940     1.1030 C.ar         1 SVR301   0.0000
    68 C71          3.0730    -2.6280     1.1620 C.ar         1 SVR301   0.0000
    69 S75          3.0090    -3.9410     0.2630 S.o2         1 SVR301   0.0000
    70 O80          4.2590    -4.1150    -0.5100 O.co2        1 SVR301   0.0000
    71 O81          2.8080    -5.1080     1.1510 O.co2        1 SVR301   0.0000
    72 O82          1.8570    -3.8250    -0.6600 O.co2        1 SVR301  -1.0000
    73 C66          4.1830    -1.1590     2.7670 C.ar         1 SVR301   0.0000
    74 C68          4.1590    -2.3200     1.9800 C.ar         1 SVR301   0.0000
    75 C72          5.2240    -3.2040     1.9930 C.ar         1 SVR301   0.0000
    76 C69          5.3170    -0.9080     3.5700 C.ar         1 SVR301   0.0000
    77 S73          5.5000     0.3700     4.5240 S.o2         1 SVR301   0.0000
    78 O77          5.3540     1.6340     3.7670 O.co2        1 SVR301   0.0000
    79 O78          4.5060     0.3290     5.6280 O.co2        1 SVR301   0.0000
    80 O79          6.8690     0.3430     5.0840 O.co2        1 SVR301  -1.0000
    81 C74          6.3790    -1.8160     3.5650 C.ar         1 SVR301   0.0000
    82 C76          6.3340    -2.9590     2.7770 C.ar         1 SVR301   0.0000
    83 S83          7.5230    -4.0210     2.7450 S.o2         1 SVR301   0.0000
    84 O85          6.9710    -5.3180     2.2870 O.co2        1 SVR301   0.0000
    85 O86          8.5800    -3.5800     1.7990 O.co2        1 SVR301   0.0000
    86 O84          8.0860    -4.1760     4.1070 O.co2        1 SVR301  -1.0000
    87 H1          13.5485     9.4269     8.0799 H            1 SVR301   0.0000
    88 H2          16.5490    11.5312     9.9802 H            1 SVR301   0.0000
    89 H3          18.4759     8.6488    12.9876 H            1 SVR301   0.0000
    90 H4          17.2705     6.6358    12.7361 H            1 SVR301   0.0000
    91 H5          14.3217     6.0981    11.2532 H            1 SVR301   0.0000
    92 H6          13.8232     4.4444    12.7783 H            1 SVR301   0.0000
    93 H7          15.7491     2.6327     9.5754 H            1 SVR301   0.0000
    94 H8          14.2315     0.7840     9.7065 H            1 SVR301   0.0000
    95 H9          11.5561     0.5469    12.1450 H            1 SVR301   0.0000
    96 H10         11.7052     0.3088    10.5364 H            1 SVR301   0.0000
    97 H11         12.7167    -0.4481    11.5710 H            1 SVR301   0.0000
    98 H12         12.2250     2.2911    14.1056 H            1 SVR301   0.0000
    99 H13          8.0993     3.0670    12.6177 H            1 SVR301   0.0000
   100 H14         11.0607     2.6225    15.4823 H            1 SVR301   0.0000
   101 H15          9.3898     2.5077    17.1869 H            1 SVR301   0.0000
   102 H16          7.0764     2.6718    16.6131 H            1 SVR301   0.0000
   103 H17          5.3722     2.6138    14.9208 H            1 SVR301   0.0000
   104 H18          4.2515     2.6795    10.4790 H            1 SVR301   0.0000
   105 H19          3.1154     5.8634    12.8766 H            1 SVR301   0.0000
   106 H20          2.1968     6.9898    10.9790 H            1 SVR301   0.0000
   107 H21          2.2954     5.9395     8.8366 H            1 SVR301   0.0000
   108 H22          2.0331     5.1128     7.7393 H            1 SVR301   0.0000
   109 H23          3.4174     2.5125     5.4855 H            1 SVR301   0.0000
   110 H24         -0.0650     6.5213     6.0687 H            1 SVR301   0.0000
   111 H25          0.2510     5.5016     7.3044 H            1 SVR301   0.0000
   112 H26          1.3846     6.5721     6.8189 H            1 SVR301   0.0000
   113 H27         -0.0078     5.5067     3.9280 H            1 SVR301   0.0000
   114 H28          0.9163     3.8623     2.4641 H            1 SVR301   0.0000
   115 H29          2.6096     0.7731     4.3359 H            1 SVR301   0.0000
   116 H30          1.1910    -0.0492     1.8406 H            1 SVR301   0.0000
   117 H31          1.2047    -2.0131     0.5159 H            1 SVR301   0.0000
   118 H32          5.1892    -4.0288     1.4287 H            1 SVR301   0.0000
   119 H33          7.1813    -1.6408     4.1357 H            1 SVR301   0.0000
   120 H34          5.9878     4.4096    11.4709 H            1 SVR301   0.0000
@<TRIPOS>BOND
     1    1    2      ar
     2    2    3      ar
     3    2    4      ar
     4    2    5       1
     5    5    6      ar
     6    5   12      ar
     7    6    7      ar
     8    7    8       1
     9    7   21      ar
    10    8    9      ar
    11    8   10      ar
    12    8   11      ar
    13   12   13      ar
    14   13   14      ar
    15   13   21      ar
    16   14   15       1
    17   14   19      ar
    18   15   16      ar
    19   15   17      ar
    20   15   18      ar
    21   19   20      ar
    22   20   22      ar
    23   21   22      ar
    24   22   23       1
    25   23   24      am
    26   24   25       2
    27   24   26       1
    28   26   27      ar
    29   26   28      ar
    30   27   32      ar
    31   28   29      ar
    32   29   30      ar
    33   30   31       1
    34   30   32      ar
    35   32   33       1
    36   33   34      am
    37   34   35       2
    38   34   36       1
    39   36   37      ar
    40   36   38      ar
    41   37   41      ar
    42   38   39      ar
    43   39   40      ar
    44   40   41      ar
    45   41   42       1
    46   42   43       1
    47   43   44       1
    48   43   45       2
    49   45   46       1
    50   46   47      ar
    51   46   48      ar
    52   47   51      ar
    53   48   49      ar
    54   49   50      ar
    55   50   51      ar
    56   51   52       1
    57   52   53       2
    58   52   54      am
    59   54   55       1
    60   55   56      ar
    61   55   57      ar
    62   56   61      ar
    63   57   58       1
    64   57   59      ar
    65   59   60      ar
    66   60   61      ar
    67   61   62       1
    68   62   63       2
    69   62   64      am
    70   64   65       1
    71   65   66      ar
    72   65   73      ar
    73   66   67      ar
    74   67   68      ar
    75   68   69       1
    76   68   74      ar
    77   69   70      ar
    78   69   71      ar
    79   69   72      ar
    80   73   74      ar
    81   73   76      ar
    82   74   75      ar
    83   75   82      ar
    84   76   77       1
    85   76   81      ar
    86   77   78      ar
    87   77   79      ar
    88   77   80      ar
    89   81   82      ar
    90   82   83       1
    91   83   84      ar
    92   83   85      ar
    93   83   86      ar
    94   67  117       1
    95    6   87       1
    96   81  119       1
    97   12   88       1
    98   75  118       1
    99   19   89       1
   100   20   90       1
   101   23   91       1
   102   27   92       1
   103   28   93       1
   104   29   94       1
   105   31   95       1
   106   31   96       1
   107   31   97       1
   108   33   98       1
   109   37   99       1
   110   38  100       1
   111   39  101       1
   112   40  102       1
   113   42  103       1
   114   44  120       1
   115   47  104       1
   116   48  105       1
   117   49  106       1
   118   50  107       1
   119   54  108       1
   120   56  109       1
   121   58  110       1
   122   58  111       1
   123   58  112       1
   124   59  113       1
   125   60  114       1
   126   64  115       1
   127   66  116       1
@<TRIPOS>SUBSTRUCTURE
     1 SVR301      1 GROUP             4 B     SVR     0 **** SVR B 301
