@<TRIPOS>MOLECULE
4wxf_PLG_2_ligand
   30    30     1     0     0
SMALL
NO_CHARGES


@<TRIPOS>ATOM
     1 N1          -7.8320   -64.3990   -11.7510 N.ar         1 PLG501   0.0000
     2 C2          -8.4710   -65.4640   -12.1720 C.ar         1 PLG501   0.0000
     3 C2A         -7.6410   -66.5560   -12.7280 C.3          1 PLG501   0.0000
     4 C3          -9.8430   -65.5660   -12.0770 C.ar         1 PLG501   0.0000
     5 O3         -10.5160   -66.6820   -12.5270 O.3          1 PLG501   0.0000
     6 C4         -10.5740   -64.5150   -11.5150 C.ar         1 PLG501   0.0000
     7 C4A        -12.0630   -64.5850   -11.5090 C.2          1 PLG501   0.0000
     8 C5          -9.8940   -63.3910   -11.1090 C.ar         1 PLG501   0.0000
     9 C6          -8.5110   -63.3870   -11.2310 C.ar         1 PLG501   0.0000
    10 C5A        -10.5840   -62.1540   -10.5740 C.3          1 PLG501   0.0000
    11 OP4        -10.8080   -62.0220    -9.1750 O.3          1 PLG501   0.0000
    12 P          -11.9570   -61.0310    -8.6680 P.3          1 PLG501   0.0000
    13 OP1        -13.1890   -61.4840    -9.3590 O.co2        1 PLG501   0.0000
    14 OP2        -11.9960   -61.2170    -7.1500 O.co2        1 PLG501  -1.0000
    15 OP3        -11.5020   -59.6010    -9.1300 O.co2        1 PLG501  -1.0000
    16 C          -14.4780   -66.9500   -12.5780 C.2          1 PLG501   0.0000
    17 O          -13.6110   -67.7790   -12.7620 O.co2        1 PLG501   0.0000
    18 OXT        -15.6580   -67.2040   -12.6240 O.co2        1 PLG501  -1.0000
    19 CA         -14.0910   -65.5460   -12.3320 C.3          1 PLG501   0.0000
    20 N          -12.6460   -65.4810   -12.2220 N.2          1 PLG501   0.0000
    21 H2A1        -8.2314   -67.3105   -13.0147 H            1 PLG501   0.0000
    22 H2A2        -7.1277   -66.2163   -13.5161 H            1 PLG501   0.0000
    23 H2A3        -7.0032   -66.8790   -12.0288 H            1 PLG501   0.0000
    24 H4A        -12.5995   -63.9450   -10.9590 H            1 PLG501   0.0000
    25 H5          -8.0052   -62.5853   -10.9125 H            1 PLG501   0.0000
    26 H5A1       -11.4793   -62.1067   -11.0169 H            1 PLG501   0.0000
    27 H5A2       -10.0314   -61.3692   -10.8547 H            1 PLG501   0.0000
    28 HA1        -14.5090   -65.2245   -11.4824 H            1 PLG501   0.0000
    29 HA2        -14.3978   -64.9731   -13.0921 H            1 PLG501   0.0000
    30 H10        -11.5115   -66.7317   -12.4467 H            1 PLG501   0.0000
@<TRIPOS>BOND
     1    1    2      ar
     2    1    9      ar
     3    2    3       1
     4    2    4      ar
     5    4    5       1
     6    4    6      ar
     7    6    7       1
     8    6    8      ar
     9    7   20       2
    10    8    9      ar
    11    8   10       1
    12   10   11       1
    13   11   12       1
    14   12   13      ar
    15   12   14      ar
    16   12   15      ar
    17   16   17      ar
    18   16   18      ar
    19   16   19       1
    20   19   20       1
    21    3   21       1
    22    3   22       1
    23    3   23       1
    24   19   29       1
    25    7   24       1
    26    9   25       1
    27   10   26       1
    28   10   27       1
    29   19   28       1
    30    5   30       1
@<TRIPOS>SUBSTRUCTURE
     1 PLG501      1 GROUP             4 C     PLG     0 **** PLG C 501
