@<TRIPOS>MOLECULE
4l2y_XXK_1_ligand
   44    48     1     0     0
SMALL
NO_CHARGES


@<TRIPOS>ATOM
     1 O25        -28.4260    41.6630   -39.0440 O.3          1 XXK1101   0.0000
     2 C24        -29.2090    42.7040   -38.6510 C.ar         1 XXK1101   0.0000
     3 C23        -29.4840    42.9220   -37.3040 C.ar         1 XXK1101   0.0000
     4 C22        -30.2940    43.9930   -36.9220 C.ar         1 XXK1101   0.0000
     5 C21        -30.8220    44.8460   -37.8820 C.ar         1 XXK1101   0.0000
     6 C26        -29.7390    43.5560   -39.6090 C.ar         1 XXK1101   0.0000
     7 C20        -30.5280    44.6370   -39.2260 C.ar         1 XXK1101   0.0000
     8 C19        -31.1000    45.5060   -40.2890 C.ar         1 XXK1101   0.0000
     9 N10        -32.2720    46.1620   -40.0420 N.ar         1 XXK1101   0.0000
    10 C09        -32.7810    46.9180   -41.0320 C.ar         1 XXK1101   0.0000
    11 C05        -33.9810    47.7490   -41.1330 C.ar         1 XXK1101   0.0000
    12 C04        -35.0030    48.0510   -40.2460 C.ar         1 XXK1101   0.0000
    13 C03        -35.9860    48.9080   -40.7480 C.ar         1 XXK1101   0.0000
    14 C02        -35.9190    49.4050   -42.0650 C.ar         1 XXK1101   0.0000
    15 N18        -30.4470    45.5670   -41.4890 N.ar         1 XXK1101   0.0000
    16 C11        -30.8710    46.2920   -42.5540 C.ar         1 XXK1101   0.0000
    17 C08        -32.1410    47.0410   -42.3500 C.ar         1 XXK1101   0.0000
    18 O07        -32.8430    47.8470   -43.1700 O.2          1 XXK1101   0.0000
    19 C06        -33.9290    48.2850   -42.5060 C.ar         1 XXK1101   0.0000
    20 N01        -34.9190    49.1100   -42.9300 N.ar         1 XXK1101   0.0000
    21 N12        -30.1230    46.2960   -43.7470 N.pl3        1 XXK1101   0.0000
    22 C17        -30.3250    47.3940   -44.7030 C.3          1 XXK1101   0.0000
    23 C16        -29.9110    47.0190   -46.1280 C.3          1 XXK1101   0.0000
    24 O15        -29.6180    45.6340   -46.2540 O.3          1 XXK1101   0.0000
    25 C14        -28.6040    45.2330   -45.3390 C.3          1 XXK1101   0.0000
    26 C13        -29.1680    45.1990   -43.9280 C.3          1 XXK1101   0.0000
    27 N28        -30.5960    44.2380   -35.4830 N.pl3        1 XXK1101   0.0000
    28 H1         -28.0397    41.0424   -38.3616 H            1 XXK1101   0.0000
    29 H2         -29.1015    42.3117   -36.6102 H            1 XXK1101   0.0000
    30 H3         -31.4107    45.6068   -37.6089 H            1 XXK1101   0.0000
    31 H4         -29.5536    43.3930   -40.5781 H            1 XXK1101   0.0000
    32 H5         -35.0343    47.6831   -39.3167 H            1 XXK1101   0.0000
    33 H6         -36.7513    49.1736   -40.1617 H            1 XXK1101   0.0000
    34 H7         -36.6511    50.0097   -42.3788 H            1 XXK1101   0.0000
    35 H8         -29.7810    48.1795   -44.4079 H            1 XXK1101   0.0000
    36 H9         -31.2938    47.6417   -44.7059 H            1 XXK1101   0.0000
    37 H10        -29.0970    47.5444   -46.3759 H            1 XXK1101   0.0000
    38 H11        -30.6584    47.2483   -46.7516 H            1 XXK1101   0.0000
    39 H12        -27.8456    45.8837   -45.3778 H            1 XXK1101   0.0000
    40 H13        -28.2746    44.3219   -45.5869 H            1 XXK1101   0.0000
    41 H14        -29.6327    44.3264   -43.7774 H            1 XXK1101   0.0000
    42 H15        -28.4215    45.2971   -43.2699 H            1 XXK1101   0.0000
    43 H16        -31.1771    45.0075   -35.2180 H            1 XXK1101   0.0000
    44 H17        -30.2175    43.6329   -34.7826 H            1 XXK1101   0.0000
@<TRIPOS>BOND
     1    1    2       1
     2    2    3      ar
     3    2    6      ar
     4    3    4      ar
     5    4    5      ar
     6    4   27       1
     7    5    7      ar
     8    6    7      ar
     9    7    8       1
    10    8    9      ar
    11    8   15      ar
    12    9   10      ar
    13   10   11       1
    14   10   17      ar
    15   11   12      ar
    16   11   19      ar
    17   12   13      ar
    18   13   14      ar
    19   14   20      ar
    20   15   16      ar
    21   16   17      ar
    22   16   21       1
    23   17   18       1
    24   18   19       1
    25   19   20      ar
    26   21   22       1
    27   21   26       1
    28   22   23       1
    29   23   24       1
    30   24   25       1
    31   25   26       1
    32    1   28       1
    33    3   29       1
    34    5   30       1
    35    6   31       1
    36   12   32       1
    37   13   33       1
    38   14   34       1
    39   22   35       1
    40   22   36       1
    41   23   37       1
    42   23   38       1
    43   25   39       1
    44   25   40       1
    45   26   41       1
    46   26   42       1
    47   27   43       1
    48   27   44       1
@<TRIPOS>SUBSTRUCTURE
     1 XXK1101     1 GROUP             4 A     XXK     0 **** XXK A1101
