@<TRIPOS>MOLECULE
1ixe_COA_2_ligand
   80    82     1     0     0
SMALL
NO_CHARGES


@<TRIPOS>ATOM
     1 N1A         36.4200   -19.3370     6.3910 N.ar         1 COA402   0.0000
     2 C2A         36.0120   -20.5630     6.9220 C.ar         1 COA402   0.0000
     3 N3A         35.1240   -21.3680     6.3010 N.ar         1 COA402   0.0000
     4 C4A         34.8400   -21.0390     4.9880 C.ar         1 COA402   0.0000
     5 C5A         35.3760   -19.9370     4.2510 C.ar         1 COA402   0.0000
     6 C6A         36.2420   -19.0130     5.0410 C.ar         1 COA402   0.0000
     7 N6A         36.8040   -17.9700     4.4950 N.pl3        1 COA402   0.0000
     8 N7A         34.9840   -19.9800     2.9440 N.2          1 COA402   0.0000
     9 C8A         34.0730   -20.9270     2.8910 C.2          1 COA402   0.0000
    10 N9A         34.0110   -21.6880     4.0760 N.pl3        1 COA402   0.0000
    11 C1B         33.2470   -22.9040     4.3510 C.3          1 COA402   0.0000
    12 C2B         31.8150   -22.4940     4.5160 C.3          1 COA402   0.0000
    13 O2B         31.5610   -22.1430     5.8890 O.3          1 COA402   0.0000
    14 C3B         31.0600   -23.7190     4.0840 C.3          1 COA402   0.0000
    15 O3B         30.8080   -24.6180     5.1390 O.3          1 COA402   0.0000
    16 P3B         29.7530   -25.9260     5.0450 P.3          1 COA402   0.0000
    17 O7A         29.7340   -26.6890     3.6260 O.co2        1 COA402   0.0000
    18 O8A         30.6380   -26.6410     6.1600 O.co2        1 COA402  -1.0000
    19 O9A         28.3380   -25.4320     5.5960 O.co2        1 COA402  -1.0000
    20 C4B         31.8990   -24.1370     2.8340 C.3          1 COA402   0.0000
    21 O4B         33.2630   -23.5600     3.0530 O.3          1 COA402   0.0000
    22 C5B         31.4550   -23.6710     1.4200 C.3          1 COA402   0.0000
    23 O5B         30.7560   -22.3780     1.5210 O.3          1 COA402   0.0000
    24 P1A         29.8020   -21.3760     0.6950 P.3          1 COA402   0.0000
    25 O1A         28.4270   -21.9560     0.4750 O.co2        1 COA402   0.0000
    26 O2A         29.8940   -19.9910     1.2500 O.co2        1 COA402  -1.0000
    27 O3A         30.5780   -21.3350    -0.6590 O.3          1 COA402   0.0000
    28 P2A         30.9860   -20.0690    -1.6040 P.3          1 COA402   0.0000
    29 O4A         31.6630   -20.6180    -2.9030 O.co2        1 COA402   0.0000
    30 O5A         29.8260   -19.0940    -1.9020 O.co2        1 COA402  -1.0000
    31 O6A         32.0240   -19.2980    -0.6610 O.3          1 COA402   0.0000
    32 CBP         33.0430   -17.1230    -0.3580 C.3          1 COA402   0.0000
    33 CCP         32.8990   -18.3720    -1.2600 C.3          1 COA402   0.0000
    34 CDP         33.9870   -16.1270    -1.0610 C.3          1 COA402   0.0000
    35 CEP         31.6350   -16.4570    -0.2790 C.3          1 COA402   0.0000
    36 CAP         33.5980   -17.6850     1.0400 C.3          1 COA402   0.0000
    37 OAP         34.8050   -18.4190     0.7920 O.3          1 COA402   0.0000
    38 C9P         33.8170   -16.5620     2.1200 C.2          1 COA402   0.0000
    39 O9P         32.7950   -16.1030     2.7900 O.2          1 COA402   0.0000
    40 N8P         35.0880   -16.1150     2.2840 N.am         1 COA402   0.0000
    41 C7P         35.3380   -15.0040     3.2360 C.3          1 COA402   0.0000
    42 C6P         35.0770   -13.6920     2.4750 C.3          1 COA402   0.0000
    43 C5P         36.1000   -13.4220     1.4130 C.2          1 COA402   0.0000
    44 O5P         37.3570   -13.4630     1.6300 O.2          1 COA402   0.0000
    45 N4P         35.5940   -13.1370     0.2600 N.am         1 COA402   0.0000
    46 C3P         36.3780   -12.6880    -0.9470 C.3          1 COA402   0.0000
    47 C2P         36.4790   -13.7250    -2.0460 C.3          1 COA402   0.0000
    48 S1P         37.8250   -13.2680    -3.1600 S.3          1 COA402   0.0000
    49 H2A         36.3936   -20.8564     7.7985 H            1 COA402   0.0000
    50 H6A1        36.6535   -17.7704     3.5267 H            1 COA402   0.0000
    51 H6A2        37.3853   -17.3701     5.0447 H            1 COA402   0.0000
    52 H8A         33.4879   -21.0896     2.0965 H            1 COA402   0.0000
    53 H1B         33.6078   -23.4593     5.1003 H            1 COA402   0.0000
    54 H2B         31.6020   -21.7238     3.9148 H            1 COA402   0.0000
    55 H7          30.6043   -21.8706     5.9919 H            1 COA402   0.0000
    56 H3B         30.1709   -23.4091     3.7472 H            1 COA402   0.0000
    57 H4B         31.9768   -25.1339     2.8265 H            1 COA402   0.0000
    58 H5B1        30.8392   -24.3519     1.0236 H            1 COA402   0.0000
    59 H5B2        32.2599   -23.5691     0.8354 H            1 COA402   0.0000
    60 HCP1        32.5335   -18.0981    -2.1496 H            1 COA402   0.0000
    61 HCP2        33.7960   -18.7962    -1.3845 H            1 COA402   0.0000
    62 HDP1        34.0935   -15.3109    -0.4929 H            1 COA402   0.0000
    63 HDP2        34.8799   -16.5553    -1.1999 H            1 COA402   0.0000
    64 HDP3        33.5999   -15.8688    -1.9461 H            1 COA402   0.0000
    65 HEP1        31.6839   -15.6415     0.2977 H            1 COA402   0.0000
    66 HEP2        31.3367   -16.1982    -1.1977 H            1 COA402   0.0000
    67 HEP3        30.9816   -17.1043     0.1136 H            1 COA402   0.0000
    68 HAP         32.9206   -18.3261     1.4007 H            1 COA402   0.0000
    69 H21         34.8999   -19.1445     1.4736 H            1 COA402   0.0000
    70 H8P         35.8424   -16.5267     1.7727 H            1 COA402   0.0000
    71 H7P1        36.2849   -15.0327     3.5563 H            1 COA402   0.0000
    72 H7P2        34.7192   -15.0762     4.0182 H            1 COA402   0.0000
    73 H6P1        35.0885   -12.9357     3.1291 H            1 COA402   0.0000
    74 H6P2        34.1762   -13.7465     2.0442 H            1 COA402   0.0000
    75 H4P         34.6026   -13.2208     0.1594 H            1 COA402   0.0000
    76 H3P1        37.3041   -12.4553    -0.6500 H            1 COA402   0.0000
    77 H3P2        35.9345   -11.8747    -1.3237 H            1 COA402   0.0000
    78 H2P1        35.6190   -13.7594    -2.5551 H            1 COA402   0.0000
    79 H2P2        36.6651   -14.6220    -1.6450 H            1 COA402   0.0000
    80 H1P         38.2477   -12.4195    -2.8416 H            1 COA402   0.0000
@<TRIPOS>BOND
     1    1    2      ar
     2    1    6      ar
     3    2    3      ar
     4    3    4      ar
     5    4    5      ar
     6    4   10       1
     7    5    6      ar
     8    5    8       1
     9    6    7       1
    10    8    9       2
    11    9   10       1
    12   10   11       1
    13   11   12       1
    14   11   21       1
    15   12   13       1
    16   12   14       1
    17   14   15       1
    18   14   20       1
    19   15   16       1
    20   16   17      ar
    21   16   18      ar
    22   16   19      ar
    23   20   21       1
    24   20   22       1
    25   22   23       1
    26   23   24       1
    27   24   25      ar
    28   24   26      ar
    29   24   27       1
    30   27   28       1
    31   28   29      ar
    32   28   30      ar
    33   28   31       1
    34   31   33       1
    35   32   33       1
    36   32   34       1
    37   32   35       1
    38   32   36       1
    39   36   37       1
    40   36   38       1
    41   38   39       2
    42   38   40      am
    43   40   41       1
    44   41   42       1
    45   42   43       1
    46   43   44       2
    47   43   45      am
    48   45   46       1
    49   46   47       1
    50   47   48       1
    51    2   49       1
    52    7   50       1
    53    7   51       1
    54    9   52       1
    55   11   53       1
    56   12   54       1
    57   13   55       1
    58   14   56       1
    59   48   80       1
    60   47   79       1
    61   20   57       1
    62   22   58       1
    63   22   59       1
    64   47   78       1
    65   46   77       1
    66   33   60       1
    67   33   61       1
    68   34   62       1
    69   34   63       1
    70   34   64       1
    71   35   65       1
    72   35   66       1
    73   35   67       1
    74   36   68       1
    75   37   69       1
    76   40   70       1
    77   41   71       1
    78   41   72       1
    79   42   73       1
    80   42   74       1
    81   45   75       1
    82   46   76       1
@<TRIPOS>SUBSTRUCTURE
     1 COA402      1 GROUP             4 B     COA     0 **** COA B 402
