@<TRIPOS>MOLECULE
5k0s_0OU_1_ligand
   45    47     1     0     0
SMALL
NO_CHARGES


@<TRIPOS>ATOM
     1 CAI         28.9590     9.9640    11.7140 C.ar         1 0OU601   0.0000
     2 CAS         27.9060    10.5100    10.9510 C.ar         1 0OU601   0.0000
     3 CL1         27.9290    10.3830     9.2410 Cl           1 0OU601   0.0000
     4 CAH         26.8540    11.1540    11.5850 C.ar         1 0OU601   0.0000
     5 CAT         26.8370    11.2530    12.9510 C.ar         1 0OU601   0.0000
     6 CL2         25.5010    12.0690    13.7550 Cl           1 0OU601   0.0000
     7 CAJ         27.8990    10.6990    13.7230 C.ar         1 0OU601   0.0000
     8 CAU         28.9490    10.0590    13.0910 C.ar         1 0OU601   0.0000
     9 CAO         30.0810     9.4670    13.9120 C.3          1 0OU601   0.0000
    10 NAP         30.7330     8.3780    13.2030 N.4          1 0OU601   1.0000
    11 CAM         29.9520     7.1670    13.3680 C.3          1 0OU601   0.0000
    12 CAL         30.7950     5.9750    13.9940 C.3          1 0OU601   0.0000
    13 CAN         30.7180     4.7220    13.1150 C.3          1 0OU601   0.0000
    14 NAQ         29.3400     4.2400    13.0240 N.pl3        1 0OU601   0.0000
    15 CAV         28.8940     3.5080    11.8720 C.2          1 0OU601   0.0000
    16 CAK         29.7870     2.7640    11.1290 C.2          1 0OU601   0.0000
    17 CAW         29.3520     2.0520    10.0090 C.2          1 0OU601   0.0000
    18 OAA         30.2380     1.3200     9.2810 O.2          1 0OU601   0.0000
    19 CAY         27.9880     2.0970     9.6360 C.ar         1 0OU601   0.0000
    20 CAG         27.5000     1.3390     8.4310 C.ar         1 0OU601   0.0000
    21 CAE         26.1610     1.3840     8.0690 C.ar         1 0OU601   0.0000
    22 CAD         25.2580     2.1420     8.8250 C.ar         1 0OU601   0.0000
    23 CAF         25.7310     2.8780     9.9950 C.ar         1 0OU601   0.0000
    24 CAX         27.1310     2.8240    10.3680 C.ar         1 0OU601   0.0000
    25 NAR         27.5930     3.5510    11.5190 N.pl3        1 0OU601   0.0000
    26 HAI         29.7187     9.5045    11.2539 H            1 0OU601   0.0000
    27 HAH         26.1087    11.5456    11.0454 H            1 0OU601   0.0000
    28 HAJ         27.8848    10.7730    14.7202 H            1 0OU601   0.0000
    29 HAO1        29.7115     9.1197    14.7739 H            1 0OU601   0.0000
    30 HAO2        30.7543    10.1816    14.1018 H            1 0OU601   0.0000
    31 HAP1        31.6503     8.2379    13.5757 H            1 0OU601   0.0000
    32 HAM1        29.6108     6.8818    12.4723 H            1 0OU601   0.0000
    33 HAM2        29.1795     7.3642    13.9717 H            1 0OU601   0.0000
    34 HAL1        30.4328     5.7602    14.9010 H            1 0OU601   0.0000
    35 HAL2        31.7505     6.2585    14.0752 H            1 0OU601   0.0000
    36 HAN1        31.2910     4.0057    13.5132 H            1 0OU601   0.0000
    37 HAN2        31.0499     4.9431    12.1980 H            1 0OU601   0.0000
    38 HAQ         28.7018     4.4222    13.7720 H            1 0OU601   0.0000
    39 HAK         30.7509     2.7343    11.3937 H            1 0OU601   0.0000
    40 HAG         28.1441     0.8000     7.8882 H            1 0OU601   0.0000
    41 HAE         25.8413     0.8758     7.2693 H            1 0OU601   0.0000
    42 HAD         24.2931     2.1793     8.5649 H            1 0OU601   0.0000
    43 HAF         25.0892     3.4190    10.5385 H            1 0OU601   0.0000
    44 HAR         26.9475     4.0904    12.0597 H            1 0OU601   0.0000
    45 HAP2        30.7990     8.6037    12.2310 H            1 0OU601   0.0000
@<TRIPOS>BOND
     1    1    2      ar
     2    1    8      ar
     3    2    3       1
     4    2    4      ar
     5    4    5      ar
     6    5    6       1
     7    5    7      ar
     8    7    8      ar
     9    8    9       1
    10    9   10       1
    11   10   11       1
    12   11   12       1
    13   12   13       1
    14   13   14       1
    15   14   15       1
    16   15   16       2
    17   15   25       1
    18   16   17       1
    19   17   18       2
    20   17   19       1
    21   19   20      ar
    22   19   24      ar
    23   20   21      ar
    24   21   22      ar
    25   22   23      ar
    26   23   24      ar
    27   24   25       1
    28    1   26       1
    29    4   27       1
    30    7   28       1
    31    9   29       1
    32    9   30       1
    33   10   31       1
    34   11   32       1
    35   11   33       1
    36   12   34       1
    37   12   35       1
    38   13   36       1
    39   13   37       1
    40   14   38       1
    41   16   39       1
    42   20   40       1
    43   21   41       1
    44   22   42       1
    45   23   43       1
    46   25   44       1
    47   10   45       1
@<TRIPOS>SUBSTRUCTURE
     1 0OU601      1 GROUP             4 A     0OU     0 **** 0OU A 601
