@<TRIPOS>MOLECULE
3tr6_SAH_1_ligand
   46    48     1     0     0
SMALL
NO_CHARGES


@<TRIPOS>ATOM
     1 N            7.5430    34.4580    -2.3790 N.4          1 SAH224   1.0000
     2 CA           6.4050    34.0170    -1.6210 C.3          1 SAH224   0.0000
     3 CB           5.6940    35.1830    -0.9550 C.3          1 SAH224   0.0000
     4 CG           5.8010    35.2700     0.5500 C.3          1 SAH224   0.0000
     5 SD           4.7980    36.4970     1.3750 S.3          1 SAH224   0.0000
     6 C            5.4510    33.3020    -2.5140 C.2          1 SAH224   0.0000
     7 O            4.2540    33.1520    -2.1430 O.co2        1 SAH224   0.0000
     8 OXT          5.8240    32.8500    -3.6260 O.co2        1 SAH224  -1.0000
     9 C5'          5.6350    37.0770     2.8420 C.3          1 SAH224   0.0000
    10 C4'          6.2420    36.0860     3.6800 C.3          1 SAH224   0.0000
    11 O4'          7.3060    36.7070     4.4820 O.3          1 SAH224   0.0000
    12 C3'          5.2590    35.5490     4.6440 C.3          1 SAH224   0.0000
    13 O3'          5.1770    34.1920     4.4930 O.3          1 SAH224   0.0000
    14 C2'          5.7940    35.8840     5.9730 C.3          1 SAH224   0.0000
    15 O2'          5.5930    34.8490     6.8520 O.3          1 SAH224   0.0000
    16 C1'          7.2450    36.0720     5.7210 C.3          1 SAH224   0.0000
    17 N9           7.9770    36.8460     6.7190 N.pl3        1 SAH224   0.0000
    18 C8           7.5310    37.9110     7.4030 C.2          1 SAH224   0.0000
    19 N7           8.5210    38.3260     8.2100 N.2          1 SAH224   0.0000
    20 C5           9.5940    37.5280     8.0390 C.ar         1 SAH224   0.0000
    21 C6          10.8740    37.4850     8.6000 C.ar         1 SAH224   0.0000
    22 N6          11.2730    38.4360     9.5880 N.pl3        1 SAH224   0.0000
    23 N1          11.7270    36.5290     8.1930 N.ar         1 SAH224   0.0000
    24 C2          11.3680    35.6280     7.2690 C.ar         1 SAH224   0.0000
    25 N3          10.1490    35.6410     6.7150 N.ar         1 SAH224   0.0000
    26 C4           9.2480    36.5760     7.0800 C.ar         1 SAH224   0.0000
    27 H1           8.3536    34.4587    -1.7934 H            1 SAH224   0.0000
    28 H2           7.6897    33.8391    -3.1506 H            1 SAH224   0.0000
    29 HA           6.7170    33.3842    -0.9123 H            1 SAH224   0.0000
    30 HB1          4.7234    35.1191    -1.1870 H            1 SAH224   0.0000
    31 HB2          6.0728    36.0267    -1.3354 H            1 SAH224   0.0000
    32 HG1          6.7564    35.4646     0.7722 H            1 SAH224   0.0000
    33 HG2          5.5478    34.3766     0.9210 H            1 SAH224   0.0000
    34 H5'1         4.9650    37.5711     3.3960 H            1 SAH224   0.0000
    35 H5'2         6.3548    37.7065     2.5495 H            1 SAH224   0.0000
    36 H4'          6.6178    35.3459     3.1223 H            1 SAH224   0.0000
    37 H3'          4.3638    35.9733     4.5075 H            1 SAH224   0.0000
    38 H12          6.0732    33.7828     4.6642 H            1 SAH224   0.0000
    39 H2'          5.3822    36.7273     6.3185 H            1 SAH224   0.0000
    40 H14          6.3776    34.2297     6.8227 H            1 SAH224   0.0000
    41 H1'          7.6732    35.1721     5.6390 H            1 SAH224   0.0000
    42 H16          6.6229    38.3225     7.3255 H            1 SAH224   0.0000
    43 H17         12.1917    38.3934     9.9808 H            1 SAH224   0.0000
    44 H18         10.6337    39.1444     9.8870 H            1 SAH224   0.0000
    45 H19         12.0255    34.9296     6.9864 H            1 SAH224   0.0000
    46 H20          7.3778    35.3832    -2.7206 H            1 SAH224   0.0000
@<TRIPOS>BOND
     1    1    2       1
     2    2    3       1
     3    2    6       1
     4    3    4       1
     5    4    5       1
     6    5    9       1
     7    6    7      ar
     8    6    8      ar
     9    9   10       1
    10   10   11       1
    11   10   12       1
    12   11   16       1
    13   12   13       1
    14   12   14       1
    15   14   15       1
    16   14   16       1
    17   16   17       1
    18   17   18       1
    19   17   26       1
    20   18   19       2
    21   19   20       1
    22   20   21      ar
    23   20   26      ar
    24   21   22       1
    25   21   23      ar
    26   23   24      ar
    27   24   25      ar
    28   25   26      ar
    29    1   27       1
    30    1   28       1
    31    2   29       1
    32    3   30       1
    33    3   31       1
    34    4   32       1
    35    4   33       1
    36    1   46       1
    37    9   34       1
    38    9   35       1
    39   10   36       1
    40   12   37       1
    41   13   38       1
    42   14   39       1
    43   15   40       1
    44   16   41       1
    45   18   42       1
    46   22   43       1
    47   22   44       1
    48   24   45       1
@<TRIPOS>SUBSTRUCTURE
     1 SAH224      1 GROUP             4 A     SAH     0 **** SAH A 224
