@<TRIPOS>MOLECULE
4azm_T4B_1_ligand
   61    65     1     0     0
SMALL
NO_CHARGES


@<TRIPOS>ATOM
     1 C1          33.8490    -0.9600    18.5560 C.ar         1 T4B1135   0.0000
     2 C2          33.4410     1.4270    21.4230 C.ar         1 T4B1135   0.0000
     3 C3          32.1180     1.8670    21.5790 C.ar         1 T4B1135   0.0000
     4 C7          34.6890    -0.5930    21.1960 C.ar         1 T4B1135   0.0000
     5 C8          35.1250    -1.6880    20.4620 C.ar         1 T4B1135   0.0000
     6 C9          29.6050     2.9550    21.6520 C.3          1 T4B1135   0.0000
     7 C10         28.3800     3.8770    21.6040 C.2          1 T4B1135   0.0000
     8 C11         31.8430     2.9910    22.3790 C.ar         1 T4B1135   0.0000
     9 C12         32.8840     3.6520    23.0320 C.ar         1 T4B1135   0.0000
    10 C13         34.1980     3.2220    22.8900 C.ar         1 T4B1135   0.0000
    11 C14         34.4680     2.1170    22.0830 C.ar         1 T4B1135   0.0000
    12 C15         34.8860     3.4200    18.1570 C.3          1 T4B1135   0.0000
    13 C16         31.6970     3.6410    16.5820 C.ar         1 T4B1135   0.0000
    14 C19         31.7430     2.5910    17.4300 C.2          1 T4B1135   0.0000
    15 C20         32.8740     1.9790    17.8020 C.2          1 T4B1135   0.0000
    16 C21         34.3020     2.2940    17.3180 C.3          1 T4B1135   0.0000
    17 C22         31.1160     4.6920    14.4800 C.ar         1 T4B1135   0.0000
    18 C24         27.2380     1.0060    18.2470 C.ar         1 T4B1135   0.0000
    19 C27         29.4220     2.1000    18.1460 C.ar         1 T4B1135   0.0000
    20 C30         32.2720     4.8580    16.9940 C.ar         1 T4B1135   0.0000
    21 C           34.7080    -1.8730    19.1480 C.ar         1 T4B1135   0.0000
    22 C4          28.7690     3.3470    18.2100 C.ar         1 T4B1135   0.0000
    23 C5          33.4020     0.1510    19.2760 C.ar         1 T4B1135   0.0000
    24 C6          33.8130     0.3300    20.6270 C.ar         1 T4B1135   0.0000
    25 O           27.2640     3.3090    21.5370 O.co2        1 T4B1135   0.0000
    26 O1          28.5810     5.1170    21.6080 O.co2        1 T4B1135  -1.0000
    27 O2          30.5760     3.4770    22.5620 O.3          1 T4B1135   0.0000
    28 C17         31.1150     3.5630    15.3110 C.ar         1 T4B1135   0.0000
    29 N           32.5670     1.0060    18.6620 N.pl3        1 T4B1135   0.0000
    30 N1          31.3400     0.9960    18.8240 N.2          1 T4B1135   0.0000
    31 C18         30.7630     1.9520    18.1020 C.2          1 T4B1135   0.0000
    32 C23         28.6340     0.9330    18.1670 C.ar         1 T4B1135   0.0000
    33 C25         26.6000     2.2420    18.3000 C.ar         1 T4B1135   0.0000
    34 C26         27.3650     3.4130    18.2780 C.ar         1 T4B1135   0.0000
    35 C28         31.7010     5.8940    14.9020 C.ar         1 T4B1135   0.0000
    36 C29         32.2860     5.9790    16.1690 C.ar         1 T4B1135   0.0000
    37 H1          33.5487    -1.0968    17.6120 H            1 T4B1135   0.0000
    38 H2          31.3718     1.3825    21.1224 H            1 T4B1135   0.0000
    39 H3          35.0046    -0.4660    22.1364 H            1 T4B1135   0.0000
    40 H4          35.7451    -2.3504    20.8823 H            1 T4B1135   0.0000
    41 H5          30.0076     2.8918    20.7388 H            1 T4B1135   0.0000
    42 H6          29.3226     2.0450    21.9555 H            1 T4B1135   0.0000
    43 H7          32.6824     4.4438    23.6085 H            1 T4B1135   0.0000
    44 H8          34.9404     3.6989    23.3605 H            1 T4B1135   0.0000
    45 H9          35.4134     1.8104    21.9728 H            1 T4B1135   0.0000
    46 H10         35.8130     3.6239    17.8422 H            1 T4B1135   0.0000
    47 H11         34.3152     4.2358    18.0636 H            1 T4B1135   0.0000
    48 H12         34.9138     3.1407    19.1168 H            1 T4B1135   0.0000
    49 H13         34.8729     1.4783    17.4114 H            1 T4B1135   0.0000
    50 H14         34.2744     2.5735    16.3582 H            1 T4B1135   0.0000
    51 H15         30.6941     4.6392    13.5749 H            1 T4B1135   0.0000
    52 H16         26.6964     0.1656    18.2662 H            1 T4B1135   0.0000
    53 H17         32.6816     4.9189    17.9042 H            1 T4B1135   0.0000
    54 H18         35.0283    -2.6658    18.6295 H            1 T4B1135   0.0000
    55 H19         29.3066     4.1902    18.2071 H            1 T4B1135   0.0000
    56 H20         30.7015     2.7079    14.9982 H            1 T4B1135   0.0000
    57 H21         29.0784     0.0382    18.1241 H            1 T4B1135   0.0000
    58 H22         25.6027     2.2925    18.3534 H            1 T4B1135   0.0000
    59 H23         26.9109     4.3033    18.3108 H            1 T4B1135   0.0000
    60 H24         31.6999     6.6903    14.2971 H            1 T4B1135   0.0000
    61 H25         32.7078     6.8316    16.4776 H            1 T4B1135   0.0000
@<TRIPOS>BOND
     1    1   21      ar
     2    1   23      ar
     3    2    3      ar
     4    2   11      ar
     5    2   24       1
     6    3    8      ar
     7    4    5      ar
     8    4   24      ar
     9    5   21      ar
    10    6    7       1
    11    6   27       1
    12    7   25      ar
    13    7   26      ar
    14    8    9      ar
    15    8   27       1
    16    9   10      ar
    17   10   11      ar
    18   12   16       1
    19   13   14       1
    20   13   20      ar
    21   13   28      ar
    22   14   15       2
    23   14   31       1
    24   15   16       1
    25   15   29       1
    26   17   28      ar
    27   17   35      ar
    28   18   32      ar
    29   18   33      ar
    30   19   22      ar
    31   19   31       1
    32   19   32      ar
    33   20   36      ar
    34   22   34      ar
    35   23   24      ar
    36   23   29       1
    37   29   30       1
    38   30   31       2
    39   33   34      ar
    40   35   36      ar
    41    1   37       1
    42    3   38       1
    43    4   39       1
    44    5   40       1
    45    6   41       1
    46    6   42       1
    47    9   43       1
    48   10   44       1
    49   11   45       1
    50   12   46       1
    51   12   47       1
    52   12   48       1
    53   16   49       1
    54   16   50       1
    55   17   51       1
    56   18   52       1
    57   20   53       1
    58   21   54       1
    59   22   55       1
    60   36   61       1
    61   28   56       1
    62   32   57       1
    63   33   58       1
    64   34   59       1
    65   35   60       1
@<TRIPOS>SUBSTRUCTURE
     1 T4B1135     1 GROUP             4 A     T4B     0 **** T4B A1135
