@<TRIPOS>MOLECULE
3so9_017_1_ligand
   75    78     1     0     0
SMALL
NO_CHARGES


@<TRIPOS>ATOM
     1 N1          15.9970    -8.6550   -16.3070 N.pl3        1 017100   0.0000
     2 C2          15.5710    -8.8720   -15.0410 C.ar         1 017100   0.0000
     3 C3          16.0760    -9.9620   -14.3290 C.ar         1 017100   0.0000
     4 C4          15.6590   -10.1860   -13.0230 C.ar         1 017100   0.0000
     5 C5          14.7860    -9.2880   -12.3990 C.ar         1 017100   0.0000
     6 C6          14.2210    -8.2340   -13.1410 C.ar         1 017100   0.0000
     7 C7          14.6500    -7.9980   -14.4440 C.ar         1 017100   0.0000
     8 S8          14.2530    -9.6630   -10.9430 S.o2         1 017100   0.0000
     9 O9          14.6520   -11.0040   -10.6670 O.2          1 017100   0.0000
    10 O10         12.8250    -9.6020   -10.9810 O.2          1 017100   0.0000
    11 N11         14.7630    -8.8060    -9.7910 N.3          1 017100   0.0000
    12 C12         15.5650    -9.4750    -8.7700 C.3          1 017100   0.0000
    13 C13         16.3140    -8.3820    -8.0130 C.3          1 017100   0.0000
    14 C14         17.7120    -8.1400    -8.5910 C.3          1 017100   0.0000
    15 C15         16.3590    -8.6990    -6.5220 C.3          1 017100   0.0000
    16 C16         14.4670    -7.3740    -9.6990 C.3          1 017100   0.0000
    17 C17         13.4520    -7.0740    -8.5770 C.3          1 017100   0.0000
    18 O18         12.9560    -5.7420    -8.8220 O.3          1 017100   0.0000
    19 C19         12.2250    -7.9810    -8.4910 C.3          1 017100   0.0000
    20 N20         11.6240    -7.9130    -7.1620 N.am         1 017100   0.0000
    21 C21         11.9570    -8.6660    -6.1180 C.2          1 017100   0.0000
    22 O22         11.8420    -9.8810    -6.0760 O.2          1 017100   0.0000
    23 O23         12.4610    -7.9310    -4.9770 O.3          1 017100   0.0000
    24 C24         12.0940    -8.4170    -3.6880 C.3          1 017100   0.0000
    25 C25         12.4380    -7.3400    -2.6560 C.3          1 017100   0.0000
    26 O26         11.2870    -7.1770    -1.8110 O.3          1 017100   0.0000
    27 C27         10.1600    -7.8750    -2.3190 C.3          1 017100   0.0000
    28 O28          9.2120    -6.9140    -2.7690 O.3          1 017100   0.0000
    29 C29          8.8050    -7.1660    -4.1200 C.3          1 017100   0.0000
    30 C30          9.7920    -8.1700    -4.6960 C.3          1 017100   0.0000
    31 C31         10.6100    -8.6740    -3.5260 C.3          1 017100   0.0000
    32 C32         11.1480    -7.5010    -9.4690 C.3          1 017100   0.0000
    33 C33          8.8070    -6.9960    -8.6780 C.ar         1 017100   0.0000
    34 C34          7.5570    -7.4120    -8.2260 C.ar         1 017100   0.0000
    35 C35          7.2830    -8.7670    -8.0570 C.ar         1 017100   0.0000
    36 C36          8.2640    -9.7080    -8.3440 C.ar         1 017100   0.0000
    37 C37          9.5110    -9.2870    -8.7980 C.ar         1 017100   0.0000
    38 C38          9.7880    -7.9360    -8.9710 C.ar         1 017100   0.0000
    39 H1          15.6430    -7.8779   -16.8274 H            1 017100   0.0000
    40 H2          16.6658    -9.2717   -16.7221 H            1 017100   0.0000
    41 H3          16.7356   -10.5792   -14.7579 H            1 017100   0.0000
    42 H4          15.9837   -10.9915   -12.5273 H            1 017100   0.0000
    43 H5          13.5136    -7.6565   -12.7334 H            1 017100   0.0000
    44 H6          14.3035    -7.2094   -14.9521 H            1 017100   0.0000
    45 H7          16.2139   -10.1035    -9.1988 H            1 017100   0.0000
    46 H8          14.9725    -9.9829    -8.1447 H            1 017100   0.0000
    47 H9          15.7951    -7.5342    -8.1223 H            1 017100   0.0000
    48 H10         18.1683    -7.4193    -8.0691 H            1 017100   0.0000
    49 H11         18.2470    -8.9829    -8.5335 H            1 017100   0.0000
    50 H12         17.6332    -7.8598    -9.5477 H            1 017100   0.0000
    51 H13         16.8525    -7.9739    -6.0418 H            1 017100   0.0000
    52 H14         15.4265    -8.7599    -6.1659 H            1 017100   0.0000
    53 H15         16.8274    -9.5711    -6.3806 H            1 017100   0.0000
    54 H16         14.0875    -7.0645   -10.5709 H            1 017100   0.0000
    55 H17         15.3151    -6.8790    -9.5101 H            1 017100   0.0000
    56 H18         13.9274    -7.0867    -7.6973 H            1 017100   0.0000
    57 H19         12.9725    -5.5556    -9.8043 H            1 017100   0.0000
    58 H20         12.4820    -8.9241    -8.7018 H            1 017100   0.0000
    59 H21         10.8971    -7.2401    -7.0248 H            1 017100   0.0000
    60 H22         12.6045    -9.2527    -3.4854 H            1 017100   0.0000
    61 H23         12.6488    -6.4783    -3.1175 H            1 017100   0.0000
    62 H24         13.2254    -7.6273    -2.1106 H            1 017100   0.0000
    63 H25          9.7629    -8.4715    -1.6215 H            1 017100   0.0000
    64 H26          8.8272    -6.3184    -4.6501 H            1 017100   0.0000
    65 H27          7.8797    -7.5449    -4.1359 H            1 017100   0.0000
    66 H28         10.3848    -7.7271    -5.3686 H            1 017100   0.0000
    67 H29          9.3035    -8.9272    -5.1296 H            1 017100   0.0000
    68 H30         10.4410    -9.6486    -3.3792 H            1 017100   0.0000
    69 H31         11.3157    -7.8982   -10.3713 H            1 017100   0.0000
    70 H32         11.1764    -6.5035    -9.5334 H            1 017100   0.0000
    71 H33          8.9986    -6.0211    -8.7917 H            1 017100   0.0000
    72 H34          6.8516    -6.7333    -8.0215 H            1 017100   0.0000
    73 H35          6.3847    -9.0611    -7.7307 H            1 017100   0.0000
    74 H36          8.0754   -10.6828    -8.2251 H            1 017100   0.0000
    75 H37         10.2166    -9.9655    -9.0023 H            1 017100   0.0000
@<TRIPOS>BOND
     1    1    2       1
     2    2    3      ar
     3    2    7      ar
     4    3    4      ar
     5    4    5      ar
     6    5    6      ar
     7    5    8       1
     8    6    7      ar
     9    8    9       2
    10    8   10       2
    11    8   11       1
    12   11   12       1
    13   11   16       1
    14   12   13       1
    15   13   14       1
    16   13   15       1
    17   16   17       1
    18   17   18       1
    19   17   19       1
    20   19   20       1
    21   19   32       1
    22   20   21      am
    23   21   22       2
    24   21   23       1
    25   23   24       1
    26   24   25       1
    27   24   31       1
    28   25   26       1
    29   26   27       1
    30   27   28       1
    31   27   31       1
    32   28   29       1
    33   29   30       1
    34   30   31       1
    35   32   38       1
    36   33   34      ar
    37   33   38      ar
    38   34   35      ar
    39   35   36      ar
    40   36   37      ar
    41   37   38      ar
    42    1   39       1
    43    1   40       1
    44    3   41       1
    45    4   42       1
    46    6   43       1
    47    7   44       1
    48   12   45       1
    49   12   46       1
    50   13   47       1
    51   14   48       1
    52   14   49       1
    53   14   50       1
    54   15   51       1
    55   15   52       1
    56   15   53       1
    57   16   54       1
    58   16   55       1
    59   17   56       1
    60   18   57       1
    61   19   58       1
    62   20   59       1
    63   24   60       1
    64   25   61       1
    65   25   62       1
    66   27   63       1
    67   29   64       1
    68   29   65       1
    69   30   66       1
    70   30   67       1
    71   31   68       1
    72   32   69       1
    73   32   70       1
    74   33   71       1
    75   34   72       1
    76   35   73       1
    77   36   74       1
    78   37   75       1
@<TRIPOS>SUBSTRUCTURE
     1 017100      1 GROUP             4 A     017     0 **** 017 A 100
