@<TRIPOS>MOLECULE
3up3_XCA_1_ligand
   71    74     1     0     0
SMALL
NO_CHARGES


@<TRIPOS>ATOM
     1 O3         -14.5540    18.6760    15.9090 O.co2        1 XCA100   0.0000
     2 C27        -13.8190    19.6010    15.4140 C.2          1 XCA100   0.0000
     3 O2         -12.7720    19.9680    16.0110 O.co2        1 XCA100  -1.0000
     4 C25        -14.2280    20.2330    14.1200 C.3          1 XCA100   0.0000
     5 C26        -14.4920    21.7450    14.2380 C.3          1 XCA100   0.0000
     6 C24        -13.1740    19.9470    13.0550 C.3          1 XCA100   0.0000
     7 C23        -12.9540    18.4580    12.7880 C.3          1 XCA100   0.0000
     8 C22        -11.9650    18.1460    11.6500 C.3          1 XCA100   0.0000
     9 C20        -10.5790    18.8100    11.8020 C.3          1 XCA100   0.0000
    10 C21         -9.9300    18.2530    13.0660 C.3          1 XCA100   0.0000
    11 C17         -9.7050    18.5480    10.5790 C.3          1 XCA100   0.0000
    12 C16        -10.3340    19.1230     9.3010 C.3          1 XCA100   0.0000
    13 C15         -9.1850    19.5450     8.3740 C.3          1 XCA100   0.0000
    14 C14         -7.9360    19.0070     9.0690 C.3          1 XCA100   0.0000
    15 C8          -6.5660    19.6180     8.7060 C.3          1 XCA100   0.0000
    16 C7          -6.3220    19.5300     7.2030 C.3          1 XCA100   0.0000
    17 C6          -4.8740    19.7150     6.8130 C.2          1 XCA100   0.0000
    18 C13         -8.2730    19.0940    10.5530 C.3          1 XCA100   0.0000
    19 C18         -8.2360    20.5370    11.0520 C.3          1 XCA100   0.0000
    20 C12         -7.2220    18.2280    11.2400 C.3          1 XCA100   0.0000
    21 C11         -5.7880    18.6950    10.9300 C.3          1 XCA100   0.0000
    22 C9          -5.4520    18.8640     9.4330 C.3          1 XCA100   0.0000
    23 C10         -4.0440    19.4490     9.1760 C.3          1 XCA100   0.0000
    24 C1          -2.9600    18.4410     9.6080 C.3          1 XCA100   0.0000
    25 C19         -3.8350    20.7260     9.9800 C.3          1 XCA100   0.0000
    26 C5          -3.8670    19.6970     7.6990 C.2          1 XCA100   0.0000
    27 C4          -2.4870    19.8980     7.1090 C.3          1 XCA100   0.0000
    28 C3          -1.3570    19.2150     7.8110 C.2          1 XCA100   0.0000
    29 O1          -0.1350    19.3530     7.2330 O.3          1 XCA100   0.0000
    30 C2          -1.5540    18.6810     9.0510 C.2          1 XCA100   0.0000
    31 H1         -15.0799    19.7989    13.8270 H            1 XCA100   0.0000
    32 H2         -14.7600    22.1072    13.3453 H            1 XCA100   0.0000
    33 H3         -15.2271    21.9046    14.8969 H            1 XCA100   0.0000
    34 H4         -13.6603    22.2054    14.5485 H            1 XCA100   0.0000
    35 H5         -12.3069    20.3449    13.3548 H            1 XCA100   0.0000
    36 H6         -13.4625    20.3810    12.2015 H            1 XCA100   0.0000
    37 H7         -13.8365    18.0501    12.5539 H            1 XCA100   0.0000
    38 H8         -12.6054    18.0396    13.6267 H            1 XCA100   0.0000
    39 H9         -12.3689    18.4604    10.7909 H            1 XCA100   0.0000
    40 H10        -11.8338    17.1553    11.6137 H            1 XCA100   0.0000
    41 H11        -10.7017    19.7968    11.9079 H            1 XCA100   0.0000
    42 H12         -9.0284    18.6679    13.1883 H            1 XCA100   0.0000
    43 H13        -10.5044    18.4647    13.8567 H            1 XCA100   0.0000
    44 H14         -9.8319    17.2614    12.9812 H            1 XCA100   0.0000
    45 H15         -9.6473    17.5566    10.4618 H            1 XCA100   0.0000
    46 H16        -10.9007    19.9157     9.5257 H            1 XCA100   0.0000
    47 H17        -10.8962    18.4273     8.8538 H            1 XCA100   0.0000
    48 H18         -9.1439    20.5405     8.2888 H            1 XCA100   0.0000
    49 H19         -9.2912    19.1370     7.4672 H            1 XCA100   0.0000
    50 H20         -7.8823    18.0338     8.8455 H            1 XCA100   0.0000
    51 H21         -6.5499    20.5779     8.9858 H            1 XCA100   0.0000
    52 H22         -6.8638    20.2398     6.7528 H            1 XCA100   0.0000
    53 H23         -6.6222    18.6303     6.8862 H            1 XCA100   0.0000
    54 H24         -4.6558    19.8578     5.8476 H            1 XCA100   0.0000
    55 H25         -7.2949    20.8742    11.0273 H            1 XCA100   0.0000
    56 H26         -8.8100    21.1076    10.4647 H            1 XCA100   0.0000
    57 H27         -8.5789    20.5740    11.9907 H            1 XCA100   0.0000
    58 H28         -7.3279    17.2843    10.9267 H            1 XCA100   0.0000
    59 H29         -7.3672    18.2693    12.2285 H            1 XCA100   0.0000
    60 H30         -5.1554    18.0221    11.3135 H            1 XCA100   0.0000
    61 H31         -5.6479    19.5777    11.3785 H            1 XCA100   0.0000
    62 H32         -5.4435    17.9421     9.0456 H            1 XCA100   0.0000
    63 H33         -3.2539    17.5317     9.3133 H            1 XCA100   0.0000
    64 H34         -2.9011    18.4651    10.6060 H            1 XCA100   0.0000
    65 H35         -2.9202    21.0874     9.7998 H            1 XCA100   0.0000
    66 H36         -4.5198    21.4040     9.7128 H            1 XCA100   0.0000
    67 H37         -3.9278    20.5249    10.9552 H            1 XCA100   0.0000
    68 H38         -2.2962    20.8796     7.1092 H            1 XCA100   0.0000
    69 H39         -2.5071    19.5625     6.1672 H            1 XCA100   0.0000
    70 H40         -0.0369    19.8850     6.3920 H            1 XCA100   0.0000
    71 H41         -0.7605    18.4404     9.6099 H            1 XCA100   0.0000
@<TRIPOS>BOND
     1    1    2      ar
     2    2    3      ar
     3    2    4       1
     4    4    5       1
     5    4    6       1
     6    6    7       1
     7    7    8       1
     8    8    9       1
     9    9   10       1
    10    9   11       1
    11   11   12       1
    12   11   18       1
    13   12   13       1
    14   13   14       1
    15   14   15       1
    16   14   18       1
    17   15   16       1
    18   15   22       1
    19   16   17       1
    20   17   26       2
    21   18   19       1
    22   18   20       1
    23   20   21       1
    24   21   22       1
    25   22   23       1
    26   23   24       1
    27   23   25       1
    28   23   26       1
    29   24   30       1
    30   26   27       1
    31   27   28       1
    32   28   29       1
    33   28   30       2
    34   30   71       1
    35    4   31       1
    36    5   32       1
    37    5   33       1
    38    5   34       1
    39    6   35       1
    40    6   36       1
    41    7   37       1
    42    7   38       1
    43    8   39       1
    44    8   40       1
    45    9   41       1
    46   10   42       1
    47   10   43       1
    48   10   44       1
    49   11   45       1
    50   12   46       1
    51   12   47       1
    52   13   48       1
    53   13   49       1
    54   14   50       1
    55   15   51       1
    56   16   52       1
    57   16   53       1
    58   17   54       1
    59   19   55       1
    60   19   56       1
    61   19   57       1
    62   20   58       1
    63   20   59       1
    64   21   60       1
    65   21   61       1
    66   22   62       1
    67   24   63       1
    68   24   64       1
    69   25   65       1
    70   25   66       1
    71   25   67       1
    72   27   68       1
    73   27   69       1
    74   29   70       1
@<TRIPOS>SUBSTRUCTURE
     1 XCA100      1 GROUP             4 A     XCA     0 **** XCA A 100
