@<TRIPOS>MOLECULE
4f97_VDO_1_ligand
   52    53     1     0     0
SMALL
NO_CHARGES


@<TRIPOS>ATOM
     1 OAY          5.9820    -9.8070     1.4470 O.co2        1 VDO502   0.0000
     2 PBA          7.3900   -10.0710     0.9830 P.3          1 VDO502   0.0000
     3 OAZ          8.0850   -11.1750     1.7380 O.co2        1 VDO502  -1.0000
     4 OAX          7.5480   -10.1290    -0.5140 O.co2        1 VDO502  -1.0000
     5 OAW          8.1960    -8.7440     1.4010 O.3          1 VDO502   0.0000
     6 CAG          8.8780    -7.9670     0.4210 C.3          1 VDO502   0.0000
     7 CAF         10.3500    -7.8560     0.7960 C.3          1 VDO502   0.0000
     8 CAV         10.5070    -6.8080     1.8920 C.3          1 VDO502   0.0000
     9 CAE         10.8880    -9.2080     1.2370 C.3          1 VDO502   0.0000
    10 OAU         10.8140   -10.1300     0.1470 O.3          1 VDO502   0.0000
    11 CAC         12.3340    -9.0970     1.6930 C.3          1 VDO502   0.0000
    12 OAP         12.7750   -10.3830     2.1380 O.3          1 VDO502   0.0000
    13 CAB         12.4700    -8.0880     2.8260 C.3          1 VDO502   0.0000
    14 OAO         13.8440    -7.9810     3.2070 O.3          1 VDO502   0.0000
    15 CAA         11.9310    -6.7140     2.4310 C.3          1 VDO502   0.0000
    16 NAN         12.8080    -6.0430     1.4840 N.4          1 VDO502   1.0000
    17 CAM         14.1450    -5.6370     1.8910 C.3          1 VDO502   0.0000
    18 CAL         15.0820    -5.5670     0.7010 C.2          1 VDO502   0.0000
    19 CAJ         14.1160    -4.3500     2.7290 C.3          1 VDO502   0.0000
    20 OAT         12.8190    -4.1800     3.3130 O.3          1 VDO502   0.0000
    21 CAI         14.4640    -3.0810     1.9580 C.3          1 VDO502   0.0000
    22 OAS         14.5980    -1.9980     2.8830 O.3          1 VDO502   0.0000
    23 CAH         15.7690    -3.2260     1.1870 C.3          1 VDO502   0.0000
    24 OAR         15.9400    -2.0800     0.3460 O.3          1 VDO502   0.0000
    25 CAK         15.7650    -4.4680     0.3460 C.2          1 VDO502   0.0000
    26 CAD         16.5630    -4.4810    -0.9370 C.3          1 VDO502   0.0000
    27 OAQ         16.8700    -5.8260    -1.3120 O.3          1 VDO502   0.0000
    28 HAG1         8.4745    -7.0529     0.3803 H            1 VDO502   0.0000
    29 HAG2         8.7939    -8.4086    -0.4723 H            1 VDO502   0.0000
    30 HAF         10.8625    -7.5556    -0.0085 H            1 VDO502   0.0000
    31 HAV1         9.8957    -7.0437     2.6475 H            1 VDO502   0.0000
    32 HAV2        10.2483    -5.9168     1.5195 H            1 VDO502   0.0000
    33 HAE         10.3315    -9.5507     1.9939 H            1 VDO502   0.0000
    34 HAU          9.8618   -10.2287    -0.1420 H            1 VDO502   0.0000
    35 HAC         12.9000    -8.8040     0.9224 H            1 VDO502   0.0000
    36 HAP         13.7580   -10.4723     1.9774 H            1 VDO502   0.0000
    37 HAB         11.9477    -8.4202     3.6114 H            1 VDO502   0.0000
    38 HAO         14.3042    -8.8537     3.0435 H            1 VDO502   0.0000
    39 HAA         11.9012    -6.1547     3.2594 H            1 VDO502   0.0000
    40 HAN1        12.3327    -5.2147     1.1875 H            1 VDO502   0.0000
    41 HAM         14.4941    -6.3593     2.4880 H            1 VDO502   0.0000
    42 HAL         15.1981    -6.3910     0.1464 H            1 VDO502   0.0000
    43 HAJ         14.7778    -4.4508     3.4718 H            1 VDO502   0.0000
    44 HAT         12.2398    -3.6532     2.6909 H            1 VDO502   0.0000
    45 HAI         13.7254    -2.8744     1.3163 H            1 VDO502   0.0000
    46 HAS         13.7115    -1.5514     3.0040 H            1 VDO502   0.0000
    47 HAH         16.5288    -3.2723     1.8355 H            1 VDO502   0.0000
    48 HAR         15.1741    -2.0189    -0.2940 H            1 VDO502   0.0000
    49 HAD1        17.4137    -3.9730    -0.8023 H            1 VDO502   0.0000
    50 HAD2        16.0282    -4.0491    -1.6633 H            1 VDO502   0.0000
    51 HAQ         17.3977    -5.8230    -2.1614 H            1 VDO502   0.0000
    52 HAN2        12.9185    -6.6607     0.7054 H            1 VDO502   0.0000
@<TRIPOS>BOND
     1    1    2      ar
     2    2    3      ar
     3    2    4      ar
     4    2    5       1
     5    5    6       1
     6    6    7       1
     7    7    8       1
     8    7    9       1
     9    8   15       1
    10    9   10       1
    11    9   11       1
    12   11   12       1
    13   11   13       1
    14   13   14       1
    15   13   15       1
    16   15   16       1
    17   16   17       1
    18   17   18       1
    19   17   19       1
    20   18   25       2
    21   19   20       1
    22   19   21       1
    23   21   22       1
    24   21   23       1
    25   23   24       1
    26   23   25       1
    27   25   26       1
    28   26   27       1
    29   27   51       1
    30   26   50       1
    31    6   28       1
    32    6   29       1
    33    7   30       1
    34    8   31       1
    35    8   32       1
    36    9   33       1
    37   10   34       1
    38   11   35       1
    39   12   36       1
    40   13   37       1
    41   14   38       1
    42   15   39       1
    43   16   40       1
    44   17   41       1
    45   18   42       1
    46   19   43       1
    47   20   44       1
    48   21   45       1
    49   22   46       1
    50   23   47       1
    51   24   48       1
    52   26   49       1
    53   16   52       1
@<TRIPOS>SUBSTRUCTURE
     1 VDO502      1 GROUP             4 A     VDO     0 **** VDO A 502
