@<TRIPOS>MOLECULE
1sb8_UD2_1_ligand
   64    66     1     0     0
SMALL
NO_CHARGES


@<TRIPOS>ATOM
     1 C1'         39.6140     3.9770    86.5930 C.3          1 UD2343   0.0000
     2 C2'         38.5700     2.8810    86.3960 C.3          1 UD2343   0.0000
     3 C3'         39.0690     1.5900    87.0310 C.3          1 UD2343   0.0000
     4 C4'         40.4900     1.2700    86.5680 C.3          1 UD2343   0.0000
     5 C5'         41.3980     2.4580    86.8180 C.3          1 UD2343   0.0000
     6 C6'         42.8080     2.1740    86.3780 C.3          1 UD2343   0.0000
     7 C7'         36.3010     3.8160    86.1970 C.2          1 UD2343   0.0000
     8 C8'         34.9100     3.6670    86.7580 C.3          1 UD2343   0.0000
     9 N2'         37.2920     3.2840    86.9980 N.am         1 UD2343   0.0000
    10 O1'         39.8850     4.1060    87.9790 O.3          1 UD2343   0.0000
    11 O3'         38.2050     0.5190    86.6530 O.3          1 UD2343   0.0000
    12 O4'         40.4710     0.9720    85.1690 O.3          1 UD2343   0.0000
    13 O5'         40.8960     3.5850    86.0870 O.3          1 UD2343   0.0000
    14 O6'         43.6530     3.0650    87.0900 O.3          1 UD2343   0.0000
    15 O7'         36.5190     4.3640    85.1380 O.2          1 UD2343   0.0000
    16 N1          40.0690    11.0170    93.5580 N.pl3        1 UD2343   0.0000
    17 C2          39.9120    12.0810    94.4460 C.2          1 UD2343   0.0000
    18 N3          41.0310    12.4920    95.1370 N.pl3        1 UD2343   0.0000
    19 C4          42.3010    11.9430    95.0340 C.2          1 UD2343   0.0000
    20 C5          42.4160    10.8010    94.0630 C.2          1 UD2343   0.0000
    21 C6          41.2940    10.4170    93.3930 C.2          1 UD2343   0.0000
    22 O2          38.8410    12.6330    94.6130 O.2          1 UD2343   0.0000
    23 O4          43.2460    12.3630    95.6870 O.2          1 UD2343   0.0000
    24 C1B         38.8870    10.5510    92.8210 C.3          1 UD2343   0.0000
    25 C2B         39.0630    10.4560    91.3340 C.3          1 UD2343   0.0000
    26 O2'         38.8590    11.7210    90.7160 O.3          1 UD2343   0.0000
    27 C3B         38.0400     9.4620    90.9140 C.3          1 UD2343   0.0000
    28 C4B         37.8830     8.5640    92.1300 C.3          1 UD2343   0.0000
    29 O4B         38.4780     9.2500    93.2450 O.3          1 UD2343   0.0000
    30 O3B         36.8030    10.1250    90.6980 O.3          1 UD2343   0.0000
    31 C5B         38.6040     7.2320    91.9240 C.3          1 UD2343   0.0000
    32 O5B         39.8430     7.5160    91.3190 O.3          1 UD2343   0.0000
    33 PA          40.9220     6.3360    91.0730 P.3          1 UD2343   0.0000
    34 O1A         42.3140     6.8720    90.4870 O.co2        1 UD2343   0.0000
    35 O2A         41.0460     5.5850    92.4960 O.co2        1 UD2343  -1.0000
    36 O3A         40.1600     5.2760    90.1450 O.3          1 UD2343   0.0000
    37 PB          39.4270     5.4450    88.7240 P.3          1 UD2343   0.0000
    38 O1B         37.8380     5.6720    88.8250 O.co2        1 UD2343   0.0000
    39 O2B         40.2380     6.6350    88.0050 O.co2        1 UD2343  -1.0000
    40 H1'         39.3135     4.8444    86.1964 H            1 UD2343   0.0000
    41 H2'         38.4357     2.7314    85.4164 H            1 UD2343   0.0000
    42 H3'         39.0597     1.6863    88.0263 H            1 UD2343   0.0000
    43 H4'         40.8332     0.4774    87.0720 H            1 UD2343   0.0000
    44 H5'         41.3959     2.6729    87.7946 H            1 UD2343   0.0000
    45 H6'1        42.8982     2.3278    85.3940 H            1 UD2343   0.0000
    46 H6'2        43.0500     1.2274    86.5909 H            1 UD2343   0.0000
    47 H8'1        34.2503     4.0737    86.1260 H            1 UD2343   0.0000
    48 H8'2        34.7014     2.6965    86.8786 H            1 UD2343   0.0000
    49 H8'3        34.8554     4.1320    87.6416 H            1 UD2343   0.0000
    50 H11         37.1409     3.1739    87.9804 H            1 UD2343   0.0000
    51 H12         38.1895    -0.1688    87.3788 H            1 UD2343   0.0000
    52 H13         41.3986     0.7617    84.8604 H            1 UD2343   0.0000
    53 H6'         43.1559     3.9101    87.2869 H            1 UD2343   0.0000
    54 H15         40.9172    13.2566    95.7713 H            1 UD2343   0.0000
    55 H16         43.2894    10.3375    93.9136 H            1 UD2343   0.0000
    56 H17         41.3657     9.6576    92.7463 H            1 UD2343   0.0000
    57 H1B         38.1371    11.1866    93.0043 H            1 UD2343   0.0000
    58 H2B         39.9783    10.1151    91.1197 H            1 UD2343   0.0000
    59 H20         39.4173    11.7817    89.8886 H            1 UD2343   0.0000
    60 H3B         38.3313     8.9475    90.1075 H            1 UD2343   0.0000
    61 H4B         36.9128     8.4012    92.3094 H            1 UD2343   0.0000
    62 H23         36.7459    10.4219    89.7448 H            1 UD2343   0.0000
    63 H5B1        38.0616     6.6375    91.3304 H            1 UD2343   0.0000
    64 H5B2        38.7486     6.7813    92.8049 H            1 UD2343   0.0000
@<TRIPOS>BOND
     1    1    2       1
     2    1   10       1
     3    1   13       1
     4    2    3       1
     5    2    9       1
     6    3    4       1
     7    3   11       1
     8    4    5       1
     9    4   12       1
    10    5    6       1
    11    5   13       1
    12    6   14       1
    13    7    8       1
    14    7    9      am
    15    7   15       2
    16   10   37       1
    17   16   17       1
    18   16   21       1
    19   16   24       1
    20   17   18       1
    21   17   22       2
    22   18   19       1
    23   19   20       1
    24   19   23       2
    25   20   21       2
    26   24   25       1
    27   24   29       1
    28   25   26       1
    29   25   27       1
    30   27   28       1
    31   27   30       1
    32   28   29       1
    33   28   31       1
    34   31   32       1
    35   32   33       1
    36   33   34      ar
    37   33   35      ar
    38   33   36       1
    39   36   37       1
    40   37   38      ar
    41   37   39      ar
    42    1   40       1
    43    2   41       1
    44    3   42       1
    45    4   43       1
    46    5   44       1
    47    6   45       1
    48    6   46       1
    49    8   47       1
    50    8   48       1
    51    8   49       1
    52    9   50       1
    53   11   51       1
    54   12   52       1
    55   14   53       1
    56   18   54       1
    57   20   55       1
    58   21   56       1
    59   24   57       1
    60   25   58       1
    61   26   59       1
    62   27   60       1
    63   28   61       1
    64   30   62       1
    65   31   63       1
    66   31   64       1
@<TRIPOS>SUBSTRUCTURE
     1 UD2343      1 GROUP             4 A     UD2     0 **** UD2 A 343
