@<TRIPOS>MOLECULE
./coach420/2gga/ligand.pdb
 25 21 0 0 0
SMALL
GASTEIGER

@<TRIPOS>ATOM
      1  C1      -127.5570   32.4440  127.0660 C.2   601  S3P601      0.0583
      2  C2      -127.4010   32.7400  125.6790 C.2   601  S3P601      0.0084
      3  C3      -128.6020   32.6370  124.7310 C.3   601  S3P601      0.1809
      4  C4      -129.9470   32.7210  125.4880 C.3   601  S3P601      0.2140
      5  C5      -129.9800   31.7300  126.6830 C.3   601  S3P601      0.1895
      6  C6      -128.8390   32.0750  127.6230 C.3   601  S3P601      0.0684
      7  C7      -126.3530   32.5150  127.9660 C.2   601  S3P601      0.3837
      8  O1      -128.5070   31.3980  123.8950 O.3   601  S3P601     -0.2655
      9  O2      -130.9900   32.4790  124.5470 O.3   601  S3P601     -0.2174
     10  O3      -131.2200   31.8260  127.3950 O.3   601  S3P601     -0.2200
     11  O4      -125.2160   32.3510  127.4530 O.co2 601  S3P601     -0.2409
     12  O5      -126.5530   32.7230  129.1910 O.co2 601  S3P601     -0.2409
     13  P1      -127.6150   31.2310  122.4910 P.3   601  S3P601      0.5329
     14  O6      -126.1580   31.3190  122.8060 O.3   601  S3P601     -0.1145
     15  O7      -128.0220   32.3270  121.5810 O.2   601  S3P601     -0.2224
     16  O8      -127.9090   29.9110  121.8940 O.3   601  S3P601     -0.1145
     17  O1      -130.6550   27.6690  125.9880 O.3   701  GPJ701      0.0000
     18  O2      -132.1240   26.1080  127.2850 O.3   701  GPJ701      0.0000
     19  O3      -130.6490   27.7220  128.4470 O.3   701  GPJ701      0.0000
     20  O4      -134.3110   31.1200  128.0890 O.co2 701  GPJ701     -0.2440
     21  O5      -135.5440   31.7650  126.3870 O.co2 701  GPJ701     -0.2440
     22  C1      -132.7870   28.5250  127.1440 C.3   701  GPJ701      0.1081
     23  C2      -133.7360   30.4830  125.8170 C.3   701  GPJ701      0.2029
     24  C3      -134.5860   31.1760  126.8520 C.2   701  GPJ701      0.3823
     25  N1      -132.5840   29.6600  126.1970 N.3   701  GPJ701     -0.2052
@<TRIPOS>BOND
     1     1     2    2
     2     1     6    1
     3     1     7    1
     4     2     3    1
     5     3     8    1
     6     3     4    1
     7     4     9    1
     8     4     5    1
     9     5    10    1
    10     5     6    1
    11     7    11   ar
    12     7    12   ar
    13     8    13    1
    14    13    15    2
    15    13    16    1
    16    13    14    1
    17    20    24   ar
    18    21    24   ar
    19    22    25    1
    20    23    25    1
    21    23    24    1
