@<TRIPOS>MOLECULE
1yzq_GNP_1_ligand
   45    47     1     0     0
SMALL
NO_CHARGES


@<TRIPOS>ATOM
     1 PG          22.8160    10.6040    14.2100 P.3          1 GNP900   0.0000
     2 O1G         23.2500    10.0060    12.8910 O.co2        1 GNP900   0.0000
     3 O2G         23.6670    10.2380    15.3920 O.co2        1 GNP900  -1.0000
     4 O3G         21.3460    10.3030    14.2990 O.co2        1 GNP900  -1.0000
     5 N3B         22.9320    12.1910    14.0590 N.3          1 GNP900   0.0000
     6 PB          22.8670    13.2660    15.2390 P.3          1 GNP900   0.0000
     7 O1B         21.4640    13.7270    15.3920 O.co2        1 GNP900   0.0000
     8 O2B         23.5640    12.7300    16.4150 O.co2        1 GNP900  -1.0000
     9 O3A         23.6170    14.5290    14.7840 O.3          1 GNP900   0.0000
    10 PA          25.0640    14.9920    15.0890 P.3          1 GNP900   0.0000
    11 O1A         25.1940    15.5250    16.4610 O.co2        1 GNP900   0.0000
    12 O2A         26.0510    13.9310    14.7460 O.co2        1 GNP900  -1.0000
    13 O5'         25.2910    16.2380    14.1740 O.3          1 GNP900   0.0000
    14 C5'         25.0770    16.1170    12.7660 C.3          1 GNP900   0.0000
    15 C4'         25.8160    17.2260    12.0440 C.3          1 GNP900   0.0000
    16 O4'         25.1800    18.4920    12.3520 O.3          1 GNP900   0.0000
    17 C3'         27.2900    17.3620    12.4200 C.3          1 GNP900   0.0000
    18 O3'         28.0810    17.6680    11.2610 O.3          1 GNP900   0.0000
    19 C2'         27.2980    18.5150    13.4250 C.3          1 GNP900   0.0000
    20 O2'         28.5250    19.2180    13.3900 O.3          1 GNP900   0.0000
    21 C1'         26.1220    19.3680    12.9400 C.3          1 GNP900   0.0000
    22 N9          25.4130    20.1000    13.9960 N.pl3        1 GNP900   0.0000
    23 C8          24.8640    19.5940    15.1570 C.2          1 GNP900   0.0000
    24 N7          24.2920    20.5020    15.9050 N.2          1 GNP900   0.0000
    25 C5          24.4700    21.6910    15.1970 C.2          1 GNP900   0.0000
    26 C6          24.0760    23.0210    15.5020 C.2          1 GNP900   0.0000
    27 O6          23.4480    23.4480    16.4820 O.2          1 GNP900   0.0000
    28 N1          24.4460    23.9270    14.5020 N.pl3        1 GNP900   0.0000
    29 C2          25.1290    23.5940    13.3520 C.2          1 GNP900   0.0000
    30 N2          25.4020    24.6120    12.5200 N.pl3        1 GNP900   0.0000
    31 N3          25.5170    22.3540    13.0540 N.2          1 GNP900   0.0000
    32 C4          25.1550    21.4540    14.0160 C.2          1 GNP900   0.0000
    33 H3B         23.8146    12.3458    13.6150 H            1 GNP900   0.0000
    34 H5'1        24.0987    16.1864    12.5706 H            1 GNP900   0.0000
    35 H5'2        25.4175    15.2306    12.4523 H            1 GNP900   0.0000
    36 H4'         25.7503    17.0660    11.0591 H            1 GNP900   0.0000
    37 H3'         27.6174    16.5218    12.8523 H            1 GNP900   0.0000
    38 H6          28.8748    18.2118    11.5333 H            1 GNP900   0.0000
    39 H2'         27.1207    18.1723    14.3476 H            1 GNP900   0.0000
    40 H8          29.1634    18.8069    14.0407 H            1 GNP900   0.0000
    41 H1'         26.4462    20.0154    12.2502 H            1 GNP900   0.0000
    42 H10         24.9001    18.6254    15.4029 H            1 GNP900   0.0000
    43 H11         24.1966    24.8867    14.6311 H            1 GNP900   0.0000
    44 H12         25.8952    24.4420    11.6668 H            1 GNP900   0.0000
    45 H13         25.1121    25.5401    12.7536 H            1 GNP900   0.0000
@<TRIPOS>BOND
     1    1    2      ar
     2    1    3      ar
     3    1    4      ar
     4    1    5       1
     5    5    6       1
     6    6    7      ar
     7    6    8      ar
     8    6    9       1
     9    9   10       1
    10   10   11      ar
    11   10   12      ar
    12   10   13       1
    13   13   14       1
    14   14   15       1
    15   15   16       1
    16   15   17       1
    17   16   21       1
    18   17   18       1
    19   17   19       1
    20   19   20       1
    21   19   21       1
    22   21   22       1
    23   22   23       1
    24   22   32       1
    25   23   24       2
    26   24   25       1
    27   25   26       1
    28   25   32       2
    29   26   27       2
    30   26   28       1
    31   28   29       1
    32   29   30       1
    33   29   31       2
    34   31   32       1
    35   30   45       1
    36   30   44       1
    37    5   33       1
    38   28   43       1
    39   23   42       1
    40   14   34       1
    41   14   35       1
    42   15   36       1
    43   17   37       1
    44   18   38       1
    45   19   39       1
    46   20   40       1
    47   21   41       1
@<TRIPOS>SUBSTRUCTURE
     1 GNP900      1 GROUP             4 A     GNP     0 **** GNP A 900
