@<TRIPOS>MOLECULE
1a59_COA_1_ligand
   76    78     1     0     0
SMALL
NO_CHARGES


@<TRIPOS>ATOM
     1 N1A        -18.0260    57.2940    86.1850 N.ar         1 COA380   0.0000
     2 C2A        -17.7980    58.2850    85.2860 C.ar         1 COA380   0.0000
     3 N3A        -17.7930    59.6160    85.5480 N.ar         1 COA380   0.0000
     4 C4A        -17.9270    59.9860    86.8210 C.ar         1 COA380   0.0000
     5 C5A        -18.0590    59.0080    87.7840 C.ar         1 COA380   0.0000
     6 C6A        -18.1150    57.6180    87.4780 C.ar         1 COA380   0.0000
     7 N6A        -18.2570    56.7490    88.4790 N.pl3        1 COA380   0.0000
     8 N7A        -18.1330    59.4500    88.9650 N.2          1 COA380   0.0000
     9 C8A        -18.2060    60.8560    88.8260 C.2          1 COA380   0.0000
    10 N9A        -17.9720    61.1120    87.4610 N.pl3        1 COA380   0.0000
    11 C1B        -17.8980    62.3800    86.7100 C.3          1 COA380   0.0000
    12 C2B        -19.3180    62.8950    86.3700 C.3          1 COA380   0.0000
    13 O2B        -19.8560    62.4370    85.1100 O.3          1 COA380   0.0000
    14 C3B        -19.1910    64.4240    86.5170 C.3          1 COA380   0.0000
    15 O3B        -18.6020    64.8620    85.2860 O.3          1 COA380   0.0000
    16 P3B        -18.6140    66.5230    84.8480 P.3          1 COA380   0.0000
    17 O7A        -19.4470    67.3220    85.9740 O.co2        1 COA380   0.0000
    18 O8A        -17.0830    67.0200    84.7960 O.co2        1 COA380  -1.0000
    19 O9A        -19.3250    66.6400    83.4070 O.co2        1 COA380  -1.0000
    20 C4B        -18.0800    64.6080    87.5690 C.3          1 COA380   0.0000
    21 O4B        -17.2760    63.4180    87.4950 O.3          1 COA380   0.0000
    22 C5B        -18.6320    64.7590    88.9850 C.3          1 COA380   0.0000
    23 O5B        -19.5380    63.6810    89.3470 O.3          1 COA380   0.0000
    24 P1A        -21.1490    63.9790    89.6820 P.3          1 COA380   0.0000
    25 O1A        -21.4330    65.5040    89.8140 O.co2        1 COA380   0.0000
    26 O2A        -22.0770    63.3190    88.6340 O.co2        1 COA380  -1.0000
    27 O3A        -21.3100    63.2300    91.1310 O.3          1 COA380   0.0000
    28 P2A        -20.7120    63.7770    92.5510 P.3          1 COA380   0.0000
    29 O4A        -21.5170    64.9970    93.0460 O.co2        1 COA380   0.0000
    30 O5A        -19.1860    64.0800    92.4450 O.co2        1 COA380  -1.0000
    31 O6A        -21.0090    62.4550    93.5010 O.3          1 COA380   0.0000
    32 CBP        -21.0230    60.0120    92.8990 C.3          1 COA380   0.0000
    33 CCP        -20.2100    61.2650    93.3610 C.3          1 COA380   0.0000
    34 CDP        -22.5200    60.3840    92.7450 C.3          1 COA380   0.0000
    35 CEP        -20.8720    58.9190    93.9780 C.3          1 COA380   0.0000
    36 CAP        -20.4330    59.5320    91.5280 C.3          1 COA380   0.0000
    37 OAP        -19.0020    59.4140    91.5750 O.3          1 COA380   0.0000
    38 C9P        -21.1210    58.2560    90.9240 C.2          1 COA380   0.0000
    39 O9P        -22.2430    58.3780    90.3380 O.2          1 COA380   0.0000
    40 N8P        -20.4940    57.0780    91.0520 N.am         1 COA380   0.0000
    41 C7P        -21.1020    55.8400    90.5510 C.3          1 COA380   0.0000
    42 C6P        -22.1300    55.3100    91.5650 C.3          1 COA380   0.0000
    43 C5P        -21.4020    54.6940    92.7350 C.2          1 COA380   0.0000
    44 O5P        -20.4310    53.9150    92.5700 O.2          1 COA380   0.0000
    45 N4P        -22.0030    54.7700    93.8870 N.am         1 COA380   0.0000
    46 C3P        -21.2740    55.2250    95.1360 C.3          1 COA380   0.0000
    47 H2A        -17.6168    58.0081    84.3423 H            1 COA380   0.0000
    48 H6A1       -18.3159    57.0774    89.4217 H            1 COA380   0.0000
    49 H6A2       -18.3046    55.7687    88.2872 H            1 COA380   0.0000
    50 H8A        -18.3859    61.5268    89.5455 H            1 COA380   0.0000
    51 H1B        -17.3800    62.2409    85.8660 H            1 COA380   0.0000
    52 H2B        -19.9325    62.5754    87.0913 H            1 COA380   0.0000
    53 H7         -20.7706    62.8197    84.9793 H            1 COA380   0.0000
    54 H3B        -20.0489    64.8844    86.7451 H            1 COA380   0.0000
    55 H4B        -17.5240    65.4060    87.3366 H            1 COA380   0.0000
    56 H5B1       -19.1253    65.6267    89.0461 H            1 COA380   0.0000
    57 H5B2       -17.8667    64.7646    89.6287 H            1 COA380   0.0000
    58 HCP1       -19.7907    61.0606    94.2455 H            1 COA380   0.0000
    59 HCP2       -19.4941    61.4432    92.6859 H            1 COA380   0.0000
    60 HDP1       -23.0348    59.5792    92.4495 H            1 COA380   0.0000
    61 HDP2       -22.8761    60.7035    93.6231 H            1 COA380   0.0000
    62 HDP3       -22.6148    61.1092    92.0630 H            1 COA380   0.0000
    63 HEP1       -21.3852    58.1060    93.7030 H            1 COA380   0.0000
    64 HEP2       -19.9055    58.6840    94.0814 H            1 COA380   0.0000
    65 HEP3       -21.2275    59.2588    94.8487 H            1 COA380   0.0000
    66 HAP        -20.6209    60.2708    90.8808 H            1 COA380   0.0000
    67 H21        -18.6228    59.5927    90.6671 H            1 COA380   0.0000
    68 H8P        -19.5985    57.0424    91.4956 H            1 COA380   0.0000
    69 H7P1       -20.3885    55.1530    90.4131 H            1 COA380   0.0000
    70 H7P2       -21.5597    56.0244    89.6812 H            1 COA380   0.0000
    71 H6P1       -22.7053    54.6188    91.1277 H            1 COA380   0.0000
    72 H6P2       -22.7019    56.0646    91.8868 H            1 COA380   0.0000
    73 H4P        -22.9697    54.5221    93.9498 H            1 COA380   0.0000
    74 H3P1       -21.9045    55.2153    95.9121 H            1 COA380   0.0000
    75 H3P2       -20.5097    54.6069    95.3197 H            1 COA380   0.0000
    76 H3P3       -20.9270    56.1529    95.0000 H            1 COA380   0.0000
@<TRIPOS>BOND
     1    1    2      ar
     2    1    6      ar
     3    2    3      ar
     4    3    4      ar
     5    4    5      ar
     6    4   10       1
     7    5    6      ar
     8    5    8       1
     9    6    7       1
    10    8    9       2
    11    9   10       1
    12   10   11       1
    13   11   12       1
    14   11   21       1
    15   12   13       1
    16   12   14       1
    17   14   15       1
    18   14   20       1
    19   15   16       1
    20   16   17      ar
    21   16   18      ar
    22   16   19      ar
    23   20   21       1
    24   20   22       1
    25   22   23       1
    26   23   24       1
    27   24   25      ar
    28   24   26      ar
    29   24   27       1
    30   27   28       1
    31   28   29      ar
    32   28   30      ar
    33   28   31       1
    34   31   33       1
    35   32   33       1
    36   32   34       1
    37   32   35       1
    38   32   36       1
    39   36   37       1
    40   36   38       1
    41   38   39       2
    42   38   40      am
    43   40   41       1
    44   41   42       1
    45   42   43       1
    46   43   44       2
    47   43   45      am
    48   45   46       1
    49    2   47       1
    50    7   48       1
    51    7   49       1
    52    9   50       1
    53   11   51       1
    54   12   52       1
    55   13   53       1
    56   14   54       1
    57   46   76       1
    58   46   75       1
    59   20   55       1
    60   22   56       1
    61   22   57       1
    62   46   74       1
    63   45   73       1
    64   33   58       1
    65   33   59       1
    66   34   60       1
    67   34   61       1
    68   34   62       1
    69   35   63       1
    70   35   64       1
    71   35   65       1
    72   36   66       1
    73   37   67       1
    74   40   68       1
    75   41   69       1
    76   41   70       1
    77   42   71       1
    78   42   72       1
@<TRIPOS>SUBSTRUCTURE
     1 COA380      1 GROUP             4 A     COA     0 **** COA A 380
