@<TRIPOS>MOLECULE
4cnf_MTA_1_ligand
   35    37     1     0     0
SMALL
NO_CHARGES


@<TRIPOS>ATOM
     1 CS         -44.3320   -27.6270   152.9560 C.3          1 MTA1400   0.0000
     2 S5'        -44.1720   -26.4750   151.5940 S.3          1 MTA1400   0.0000
     3 C5'        -42.4990   -25.9410   151.6050 C.3          1 MTA1400   0.0000
     4 C4'        -41.9440   -26.0180   150.2010 C.3          1 MTA1400   0.0000
     5 O4'        -41.8810   -27.3460   149.7370 O.3          1 MTA1400   0.0000
     6 C2'        -42.2980   -25.9790   147.9220 C.3          1 MTA1400   0.0000
     7 O2'        -41.0330   -25.3970   147.5930 O.3          1 MTA1400   0.0000
     8 C3'        -42.7510   -25.2790   149.1600 C.3          1 MTA1400   0.0000
     9 O3'        -42.4290   -23.8960   149.0540 O.3          1 MTA1400   0.0000
    10 C1'        -42.1170   -27.4140   148.3650 C.3          1 MTA1400   0.0000
    11 N9         -43.3050   -28.2880   148.0990 N.pl3        1 MTA1400   0.0000
    12 C8         -44.0880   -28.9100   149.0090 C.2          1 MTA1400   0.0000
    13 N7         -45.0610   -29.6770   148.4040 N.2          1 MTA1400   0.0000
    14 C5         -44.8630   -29.5900   147.0970 C.ar         1 MTA1400   0.0000
    15 C6         -45.5150   -30.1740   145.8950 C.ar         1 MTA1400   0.0000
    16 N6         -46.5620   -31.0420   145.9340 N.pl3        1 MTA1400   0.0000
    17 N1         -45.0160   -29.7570   144.7470 N.ar         1 MTA1400   0.0000
    18 C2         -43.9420   -28.9720   144.6710 C.ar         1 MTA1400   0.0000
    19 N3         -43.2960   -28.4110   145.6870 N.ar         1 MTA1400   0.0000
    20 C4         -43.7090   -28.7050   146.9160 C.ar         1 MTA1400   0.0000
    21 HS1        -45.2720   -27.9656   152.9975 H            1 MTA1400   0.0000
    22 HS2        -43.7068   -28.3952   152.8180 H            1 MTA1400   0.0000
    23 HS3        -44.1065   -27.1635   153.8129 H            1 MTA1400   0.0000
    24 H5'1       -41.9635   -26.5310   152.2093 H            1 MTA1400   0.0000
    25 H5'2       -42.4512   -24.9973   151.9324 H            1 MTA1400   0.0000
    26 H4'        -41.0174   -25.6419   150.2072 H            1 MTA1400   0.0000
    27 H2'        -42.9588   -25.8940   147.1762 H            1 MTA1400   0.0000
    28 H8         -40.9000   -25.4267   146.6023 H            1 MTA1400   0.0000
    29 H3'        -43.7315   -25.4089   149.3073 H            1 MTA1400   0.0000
    30 H10        -42.9994   -23.4740   148.3494 H            1 MTA1400   0.0000
    31 H1'        -41.3144   -27.8008   147.9109 H            1 MTA1400   0.0000
    32 H12        -43.9753   -28.8243   149.9989 H            1 MTA1400   0.0000
    33 H13        -46.9508   -31.3950   145.0830 H            1 MTA1400   0.0000
    34 H14        -46.9427   -31.3270   146.8137 H            1 MTA1400   0.0000
    35 H15        -43.5858   -28.7862   143.7552 H            1 MTA1400   0.0000
@<TRIPOS>BOND
     1    1    2       1
     2    2    3       1
     3    3    4       1
     4    4    5       1
     5    4    8       1
     6    5   10       1
     7    6    7       1
     8    6    8       1
     9    6   10       1
    10    8    9       1
    11   10   11       1
    12   11   12       1
    13   11   20       1
    14   12   13       2
    15   13   14       1
    16   14   15      ar
    17   14   20      ar
    18   15   16       1
    19   15   17      ar
    20   17   18      ar
    21   18   19      ar
    22   19   20      ar
    23    1   21       1
    24    1   22       1
    25    1   23       1
    26    3   24       1
    27    3   25       1
    28    4   26       1
    29    6   27       1
    30    7   28       1
    31    8   29       1
    32    9   30       1
    33   10   31       1
    34   12   32       1
    35   16   33       1
    36   16   34       1
    37   18   35       1
@<TRIPOS>SUBSTRUCTURE
     1 MTA1400     1 GROUP             4 A     MTA     0 **** MTA A1400
