@<TRIPOS>MOLECULE
4k88_HFG_1_ligand
   42    44     1     0     0
SMALL
NO_CHARGES


@<TRIPOS>ATOM
     1 O4'        -29.2600    14.3080   -10.1720 O.2          1 HFG602   0.0000
     2 C21        -28.7380    15.4160   -10.2990 C.2          1 HFG602   0.0000
     3 C3'        -29.0460    16.3380   -11.4760 C.3          1 HFG602   0.0000
     4 C2'        -30.4610    16.1350   -12.0270 C.3          1 HFG602   0.0000
     5 N1'        -30.6190    14.7700   -12.5510 N.4          1 HFG602   1.0000
     6 C6'        -31.9800    14.5840   -13.0700 C.3          1 HFG602   0.0000
     7 C5'        -33.0080    14.8030   -11.9770 C.3          1 HFG602   0.0000
     8 C4'        -32.8390    16.2110   -11.4670 C.3          1 HFG602   0.0000
     9 C39        -31.4420    16.3780   -10.9200 C.3          1 HFG602   0.0000
    10 O7'        -31.3050    17.7160   -10.4600 O.3          1 HFG602   0.0000
    11 C1'        -27.7040    15.9480    -9.3000 C.3          1 HFG602   0.0000
    12 N3         -26.5850    14.9900    -9.2600 N.pl3        1 HFG602   0.0000
    13 C4         -25.6950    14.9620   -10.2550 C.2          1 HFG602   0.0000
    14 O11        -25.7810    15.7920   -11.3240 O.2          1 HFG602   0.0000
    15 C10        -24.6400    14.0700   -10.2410 C.ar         1 HFG602   0.0000
    16 C5         -23.7290    14.0270   -11.2860 C.ar         1 HFG602   0.0000
    17 C2         -26.4560    14.1170    -8.1790 C.2          1 HFG602   0.0000
    18 N1         -25.4560    13.2550    -8.1320 N.2          1 HFG602   0.0000
    19 C9         -24.5160    13.2090    -9.1650 C.ar         1 HFG602   0.0000
    20 C8         -23.4840    12.2850    -9.1340 C.ar         1 HFG602   0.0000
    21 C7         -22.5680    12.2350   -10.1760 C.ar         1 HFG602   0.0000
    22 BR1        -21.1850    10.9880   -10.0820 Br           1 HFG602   0.0000
    23 C6         -22.6860    13.1100   -11.2530 C.ar         1 HFG602   0.0000
    24 CL1        -21.5600    13.0710   -12.5480 Cl           1 HFG602   0.0000
    25 H3'1       -28.3882    16.1555   -12.2068 H            1 HFG602   0.0000
    26 H3'2       -28.9530    17.2865   -11.1730 H            1 HFG602   0.0000
    27 H2'        -30.6254    16.7916   -12.7631 H            1 HFG602   0.0000
    28 H1'1       -30.4522    14.1122   -11.8165 H            1 HFG602   0.0000
    29 H6'1       -32.0714    13.6533   -13.4243 H            1 HFG602   0.0000
    30 H6'2       -32.1417    15.2390   -13.8081 H            1 HFG602   0.0000
    31 H5'1       -32.8592    14.1510   -11.2335 H            1 HFG602   0.0000
    32 H5'2       -33.9294    14.6826   -12.3466 H            1 HFG602   0.0000
    33 H4'1       -33.5050    16.3860   -10.7419 H            1 HFG602   0.0000
    34 H4'2       -32.9841    16.8575   -12.2160 H            1 HFG602   0.0000
    35 H11        -31.2843    15.7357   -10.1699 H            1 HFG602   0.0000
    36 H7'        -31.9578    17.8829    -9.7211 H            1 HFG602   0.0000
    37 H13        -28.1167    16.0276    -8.3926 H            1 HFG602   0.0000
    38 H1'2       -27.3744    16.8445    -9.5960 H            1 HFG602   0.0000
    39 H15        -23.8226    14.6534   -12.0599 H            1 HFG602   0.0000
    40 H16        -27.1244    14.1441    -7.4357 H            1 HFG602   0.0000
    41 H17        -23.3991    11.6550    -8.3621 H            1 HFG602   0.0000
    42 H18        -29.9603    14.6203   -13.2884 H            1 HFG602   0.0000
@<TRIPOS>BOND
     1    1    2       2
     2    2    3       1
     3    2   11       1
     4    3    4       1
     5    4    5       1
     6    4    9       1
     7    5    6       1
     8    6    7       1
     9    7    8       1
    10    8    9       1
    11    9   10       1
    12   11   12       1
    13   12   13       1
    14   12   17       1
    15   13   14       2
    16   13   15       1
    17   15   16      ar
    18   15   19      ar
    19   16   23      ar
    20   17   18       2
    21   18   19       1
    22   19   20      ar
    23   20   21      ar
    24   21   22       1
    25   21   23      ar
    26   23   24       1
    27    3   25       1
    28    3   26       1
    29    4   27       1
    30    5   28       1
    31    6   29       1
    32    6   30       1
    33    7   31       1
    34    7   32       1
    35    8   33       1
    36    8   34       1
    37    9   35       1
    38   10   36       1
    39   11   37       1
    40   11   38       1
    41   16   39       1
    42   17   40       1
    43   20   41       1
    44    5   42       1
@<TRIPOS>SUBSTRUCTURE
     1 HFG602      1 GROUP             4 A     HFG     0 **** HFG A 602
