@<TRIPOS>MOLECULE
1r37_NAD_1_ligand
   70    74     1     0     0
SMALL
NO_CHARGES


@<TRIPOS>ATOM
     1 PA          82.1100    11.1210    12.1880 P.3          1 NAD403   0.0000
     2 O1A         83.0050    11.5370    13.2950 O.co2        1 NAD403   0.0000
     3 O2A         82.3690    11.6240    10.8040 O.co2        1 NAD403  -1.0000
     4 O5B         82.0930     9.5350    12.2260 O.3          1 NAD403   0.0000
     5 C5B         81.3640     8.7140    11.2590 C.3          1 NAD403   0.0000
     6 C4B         82.1030     7.3980    11.1870 C.3          1 NAD403   0.0000
     7 O4B         81.3650     6.5560    10.2150 O.3          1 NAD403   0.0000
     8 C3B         83.5710     7.4730    10.6110 C.3          1 NAD403   0.0000
     9 O3B         84.5260     6.9730    11.5960 O.3          1 NAD403   0.0000
    10 C2B         83.5390     6.6560     9.3260 C.3          1 NAD403   0.0000
    11 O2B         84.7050     6.0250     8.9120 O.3          1 NAD403   0.0000
    12 C1B         82.3420     5.7290     9.6240 C.3          1 NAD403   0.0000
    13 N9A         81.7780     5.1610     8.4050 N.pl3        1 NAD403   0.0000
    14 C8A         81.5480     5.6660     7.1190 C.2          1 NAD403   0.0000
    15 N7A         81.0090     4.7810     6.2930 N.2          1 NAD403   0.0000
    16 C5A         80.8490     3.6370     6.9790 C.ar         1 NAD403   0.0000
    17 C6A         80.3140     2.3060     6.6260 C.ar         1 NAD403   0.0000
    18 N6A         79.8570     2.0110     5.4230 N.pl3        1 NAD403   0.0000
    19 N1A         80.3290     1.3840     7.6630 N.ar         1 NAD403   0.0000
    20 C2A         80.7760     1.6130     8.9050 C.ar         1 NAD403   0.0000
    21 N3A         81.2950     2.8520     9.2920 N.ar         1 NAD403   0.0000
    22 C4A         81.3150     3.8370     8.3040 C.ar         1 NAD403   0.0000
    23 O3          80.6260    11.5340    12.5260 O.3          1 NAD403   0.0000
    24 PN          79.8390    11.7690    13.9290 P.3          1 NAD403   0.0000
    25 O1N         80.0540    13.1430    14.3920 O.co2        1 NAD403   0.0000
    26 O2N         80.2480    10.6310    14.8190 O.co2        1 NAD403  -1.0000
    27 O5D         78.3070    11.6770    13.4020 O.3          1 NAD403   0.0000
    28 C5D         77.7620    10.4340    12.8450 C.3          1 NAD403   0.0000
    29 C4D         76.3320    10.6330    12.4860 C.3          1 NAD403   0.0000
    30 O4D         75.5760    10.8970    13.7360 O.3          1 NAD403   0.0000
    31 C3D         76.0170    11.8850    11.5700 C.3          1 NAD403   0.0000
    32 O3D         75.0760    11.5390    10.5290 O.3          1 NAD403   0.0000
    33 C2D         75.4090    12.9100    12.5440 C.3          1 NAD403   0.0000
    34 O2D         74.6090    13.8860    11.9270 O.3          1 NAD403   0.0000
    35 C1D         74.6440    11.9690    13.5450 C.3          1 NAD403   0.0000
    36 N1N         74.3690    12.5340    14.8940 N.ar         1 NAD403   1.0000
    37 C2N         73.0890    12.2370    15.4680 C.ar         1 NAD403   0.0000
    38 C3N         72.7350    12.6810    16.6810 C.ar         1 NAD403   0.0000
    39 C7N         71.3780    12.3460    17.2660 C.2          1 NAD403   0.0000
    40 O7N         70.9530    13.0540    18.1980 O.2          1 NAD403   0.0000
    41 N7N         70.6830    11.3060    16.7830 N.am         1 NAD403   0.0000
    42 C4N         73.6740    13.5410    17.5480 C.ar         1 NAD403   0.0000
    43 C5N         75.0240    13.8310    16.9000 C.ar         1 NAD403   0.0000
    44 C6N         75.3250    13.3230    15.6040 C.ar         1 NAD403   0.0000
    45 H5B1        81.3565     9.1575    10.3628 H            1 NAD403   0.0000
    46 H5B2        80.4237     8.5679    11.5665 H            1 NAD403   0.0000
    47 H4B         82.1093     6.9589    12.0854 H            1 NAD403   0.0000
    48 H3B         83.7909     8.4236    10.3918 H            1 NAD403   0.0000
    49 H5          84.3096     6.0221    11.8172 H            1 NAD403   0.0000
    50 H2B         83.2593     7.2728     8.5903 H            1 NAD403   0.0000
    51 H7          84.7451     5.1068     9.3061 H            1 NAD403   0.0000
    52 H1B         82.6122     5.0020    10.2553 H            1 NAD403   0.0000
    53 H8A         81.7691     6.6035     6.8502 H            1 NAD403   0.0000
    54 H6A1        79.5046     1.0947     5.2328 H            1 NAD403   0.0000
    55 H6A2        79.8633     2.7039     4.7020 H            1 NAD403   0.0000
    56 H2A         80.7371     0.8736     9.5771 H            1 NAD403   0.0000
    57 H5D1        77.8361     9.7042    13.5246 H            1 NAD403   0.0000
    58 H5D2        78.2785    10.1813    12.0268 H            1 NAD403   0.0000
    59 H4D         75.9789     9.8045    12.0514 H            1 NAD403   0.0000
    60 H3D         76.8605    12.2438    11.1703 H            1 NAD403   0.0000
    61 H17         74.8927    12.3438     9.9644 H            1 NAD403   0.0000
    62 H2D         76.1511    13.3662    13.0351 H            1 NAD403   0.0000
    63 H19         73.6624    13.5658    11.8889 H            1 NAD403   0.0000
    64 H1D         73.8003    11.6289    13.1297 H            1 NAD403   0.0000
    65 H2N         72.4410    11.6815    14.9469 H            1 NAD403   0.0000
    66 H7N1        69.7871    11.0819    17.1666 H            1 NAD403   0.0000
    67 H7N2        71.0606    10.7545    16.0392 H            1 NAD403   0.0000
    68 H4N         73.4211    13.8789    18.4546 H            1 NAD403   0.0000
    69 H5N         75.7017    14.3810    17.3880 H            1 NAD403   0.0000
    70 H6N         76.2126    13.5202    15.1877 H            1 NAD403   0.0000
@<TRIPOS>BOND
     1    1    2      ar
     2    1    3      ar
     3    1    4       1
     4    1   23       1
     5    4    5       1
     6    5    6       1
     7    6    7       1
     8    6    8       1
     9    7   12       1
    10    8    9       1
    11    8   10       1
    12   10   11       1
    13   10   12       1
    14   12   13       1
    15   13   14       1
    16   13   22       1
    17   14   15       2
    18   15   16       1
    19   16   17      ar
    20   16   22      ar
    21   17   18       1
    22   17   19      ar
    23   19   20      ar
    24   20   21      ar
    25   21   22      ar
    26   23   24       1
    27   24   25      ar
    28   24   26      ar
    29   24   27       1
    30   27   28       1
    31   28   29       1
    32   29   30       1
    33   29   31       1
    34   30   35       1
    35   31   32       1
    36   31   33       1
    37   33   34       1
    38   33   35       1
    39   35   36       1
    40   36   37      ar
    41   36   44      ar
    42   37   38      ar
    43   38   39       1
    44   38   42      ar
    45   39   40       2
    46   39   41      am
    47   42   43      ar
    48   43   44      ar
    49   44   70       1
    50    5   45       1
    51    5   46       1
    52    6   47       1
    53    8   48       1
    54    9   49       1
    55   10   50       1
    56   11   51       1
    57   12   52       1
    58   14   53       1
    59   18   54       1
    60   18   55       1
    61   20   56       1
    62   43   69       1
    63   28   57       1
    64   28   58       1
    65   29   59       1
    66   31   60       1
    67   32   61       1
    68   33   62       1
    69   34   63       1
    70   35   64       1
    71   37   65       1
    72   41   66       1
    73   41   67       1
    74   42   68       1
@<TRIPOS>SUBSTRUCTURE
     1 NAD403      1 GROUP             4 A     NAD     0 **** NAD A 403
