@<TRIPOS>MOLECULE
2iya_ZIO_2_ligand
  110   113     1     0     0
SMALL
NO_CHARGES


@<TRIPOS>ATOM
     1 C10         23.5830    39.6130    64.4280 C.3          1 ZIO1425   0.0000
     2 C11         22.4350    39.9350    65.4110 C.3          1 ZIO1425   0.0000
     3 C12         22.5470    39.6980    66.9590 C.3          1 ZIO1425   0.0000
     4 C13         21.2010    40.0630    67.6350 C.3          1 ZIO1425   0.0000
     5 O2          20.9770    41.4480    67.3860 O.3          1 ZIO1425   0.0000
     6 C2          19.9410    43.2930    66.0450 C.3          1 ZIO1425   0.0000
     7 C3          20.0600    43.3300    64.4850 C.3          1 ZIO1425   0.0000
     8 C4          20.9270    44.5280    64.0030 C.3          1 ZIO1425   0.0000
     9 C5          21.2940    44.4670    62.4820 C.3          1 ZIO1425   0.0000
    10 C6          22.0100    43.1500    62.0420 C.3          1 ZIO1425   0.0000
    11 C7          23.4540    43.0800    62.6080 C.3          1 ZIO1425   0.0000
    12 C8          24.1250    41.7000    62.8360 C.3          1 ZIO1425   0.0000
    13 C9          23.3380    40.4240    63.1400 C.2          1 ZIO1425   0.0000
    14 O11         22.4120    39.9330    62.2050 O.2          1 ZIO1425   0.0000
    15 C1          19.9700    41.8330    66.4990 C.2          1 ZIO1425   0.0000
    16 O1          19.0360    40.9140    66.0050 O.2          1 ZIO1425   0.0000
    17 O3          18.7820    43.3260    63.8380 O.3          1 ZIO1425   0.0000
    18 O7          22.1550    45.5530    62.1700 O.3          1 ZIO1425   0.0000
    19 C34         23.8340    38.1320    64.1100 C.3          1 ZIO1425   0.0000
    20 C33         25.2350    41.3690    61.8310 C.3          1 ZIO1425   0.0000
    21 C35         23.7160    40.4640    67.6180 C.3          1 ZIO1425   0.0000
    22 O12         21.2670    39.3420    64.8800 O.3          1 ZIO1425   0.0000
    23 C36         21.1160    39.8290    69.1500 C.3          1 ZIO1425   0.0000
    24 C30         18.6840    43.9280    66.6580 C.3          1 ZIO1425   0.0000
    25 C32         22.0060    42.9770    60.5180 C.3          1 ZIO1425   0.0000
    26 C22         21.6160    46.5080    61.2670 C.3          1 ZIO1425   0.0000
    27 C23         22.5260    47.7340    61.4040 C.3          1 ZIO1425   0.0000
    28 C24         22.1070    48.8050    60.3830 C.3          1 ZIO1425   0.0000
    29 C25         21.9660    48.1670    58.9780 C.3          1 ZIO1425   0.0000
    30 C26         21.0250    46.9600    59.0100 C.3          1 ZIO1425   0.0000
    31 O9          21.5130    46.0000    59.9420 O.3          1 ZIO1425   0.0000
    32 N1          22.9720    49.9970    60.4390 N.4          1 ZIO1425   1.0000
    33 C27         20.9210    46.2470    57.6590 C.3          1 ZIO1425   0.0000
    34 O8          22.4700    48.2680    62.7220 O.3          1 ZIO1425   0.0000
    35 C28         22.4550    51.1400    59.6600 C.3          1 ZIO1425   0.0000
    36 C14         18.4670    42.2540    62.9520 C.3          1 ZIO1425   0.0000
    37 C15         17.0270    41.7910    63.2440 C.3          1 ZIO1425   0.0000
    38 C16         16.0200    42.9090    62.8720 C.3          1 ZIO1425   0.0000
    39 C17         16.2350    43.4270    61.4250 C.3          1 ZIO1425   0.0000
    40 C18         17.7350    43.7230    61.2020 C.3          1 ZIO1425   0.0000
    41 O4          18.5680    42.6110    61.5760 O.3          1 ZIO1425   0.0000
    42 O5          14.6690    42.4920    63.0130 O.3          1 ZIO1425   0.0000
    43 O6          15.4680    44.6180    61.1740 O.3          1 ZIO1425   0.0000
    44 O10         25.4990    41.6730    63.1850 O.3          1 ZIO1425   0.0000
    45 C20         14.2450    42.4870    64.3610 C.3          1 ZIO1425   0.0000
    46 C29         24.4400    49.8310    60.3430 C.3          1 ZIO1425   0.0000
    47 C21         18.0400    44.0500    59.7320 C.3          1 ZIO1425   0.0000
    48 C31         20.3200    45.8740    64.4360 C.3          1 ZIO1425   0.0000
    49 H1          24.4233    39.9676    64.8380 H            1 ZIO1425   0.0000
    50 H2          22.2866    40.9192    65.3147 H            1 ZIO1425   0.0000
    51 H3          22.7043    38.7213    67.1052 H            1 ZIO1425   0.0000
    52 H4          20.4725    39.5400    67.1926 H            1 ZIO1425   0.0000
    53 H5          20.7411    43.7540    66.4289 H            1 ZIO1425   0.0000
    54 H6          20.5330    42.4941    64.2065 H            1 ZIO1425   0.0000
    55 H7          21.7943    44.4506    64.4948 H            1 ZIO1425   0.0000
    56 H8          20.4538    44.5648    61.9487 H            1 ZIO1425   0.0000
    57 H9          21.4974    42.3851    62.4321 H            1 ZIO1425   0.0000
    58 H10         23.4414    43.5459    63.4928 H            1 ZIO1425   0.0000
    59 H11         24.0388    43.5853    61.9735 H            1 ZIO1425   0.0000
    60 H12         24.5961    38.0536    63.4673 H            1 ZIO1425   0.0000
    61 H13         24.0575    37.6432    64.9533 H            1 ZIO1425   0.0000
    62 H14         23.0119    37.7346    63.7023 H            1 ZIO1425   0.0000
    63 H15         25.4755    42.0186    61.1098 H            1 ZIO1425   0.0000
    64 H16         25.3478    40.4357    61.4901 H            1 ZIO1425   0.0000
    65 H17         23.7306    40.2702    68.5989 H            1 ZIO1425   0.0000
    66 H18         24.5797    40.1714    67.2076 H            1 ZIO1425   0.0000
    67 H19         23.5943    41.4461    67.4740 H            1 ZIO1425   0.0000
    68 H20         21.1772    38.4100    65.2311 H            1 ZIO1425   0.0000
    69 H21         20.2102    40.0967    69.4783 H            1 ZIO1425   0.0000
    70 H22         21.2691    38.8606    69.3468 H            1 ZIO1425   0.0000
    71 H23         21.8134    40.3773    69.6116 H            1 ZIO1425   0.0000
    72 H24         18.7200    43.8443    67.6538 H            1 ZIO1425   0.0000
    73 H25         18.6423    44.8948    66.4061 H            1 ZIO1425   0.0000
    74 H26         17.8713    43.4583    66.3132 H            1 ZIO1425   0.0000
    75 H27         22.4720    42.1254    60.2780 H            1 ZIO1425   0.0000
    76 H28         21.0623    42.9449    60.1886 H            1 ZIO1425   0.0000
    77 H29         22.4811    43.7479    60.0938 H            1 ZIO1425   0.0000
    78 H30         20.7002    46.7579    61.5814 H            1 ZIO1425   0.0000
    79 H31         23.4673    47.4575    61.2102 H            1 ZIO1425   0.0000
    80 H32         21.1917    49.1070    60.6495 H            1 ZIO1425   0.0000
    81 H33         22.8673    47.8697    58.6628 H            1 ZIO1425   0.0000
    82 H34         21.5999    48.8493    58.3452 H            1 ZIO1425   0.0000
    83 H35         20.1145    47.2605    59.2940 H            1 ZIO1425   0.0000
    84 H36         20.2960    45.4705    57.7391 H            1 ZIO1425   0.0000
    85 H37         20.5739    46.8847    56.9714 H            1 ZIO1425   0.0000
    86 H38         21.8252    45.9201    57.3841 H            1 ZIO1425   0.0000
    87 H39         22.6315    49.2543    62.6892 H            1 ZIO1425   0.0000
    88 H40         23.0864    51.9112    59.7406 H            1 ZIO1425   0.0000
    89 H41         22.3706    50.8774    58.6988 H            1 ZIO1425   0.0000
    90 H42         21.5578    51.4054    60.0130 H            1 ZIO1425   0.0000
    91 H43         19.0913    41.4941    63.1330 H            1 ZIO1425   0.0000
    92 H44         16.9394    41.5778    64.2171 H            1 ZIO1425   0.0000
    93 H45         16.8270    40.9732    62.7043 H            1 ZIO1425   0.0000
    94 H46         16.1700    43.6755    63.4964 H            1 ZIO1425   0.0000
    95 H47         15.9475    42.7169    60.7823 H            1 ZIO1425   0.0000
    96 H48         17.9891    44.5118    61.7616 H            1 ZIO1425   0.0000
    97 H49         16.0849    45.3671    60.9326 H            1 ZIO1425   0.0000
    98 H50         13.2920    42.1879    64.4096 H            1 ZIO1425   0.0000
    99 H51         14.8184    41.8601    64.8885 H            1 ZIO1425   0.0000
   100 H52         14.3246    43.4094    64.7389 H            1 ZIO1425   0.0000
   101 H53         24.8810    50.7269    60.3967 H            1 ZIO1425   0.0000
   102 H54         24.7604    49.2561    61.0959 H            1 ZIO1425   0.0000
   103 H55         24.6702    49.3979    59.4716 H            1 ZIO1425   0.0000
   104 H56         19.0171    44.2352    59.6275 H            1 ZIO1425   0.0000
   105 H57         17.7849    43.2722    59.1576 H            1 ZIO1425   0.0000
   106 H58         17.5165    44.8555    59.4541 H            1 ZIO1425   0.0000
   107 H59         20.9000    46.6211    64.1112 H            1 ZIO1425   0.0000
   108 H60         19.4047    45.9682    64.0445 H            1 ZIO1425   0.0000
   109 H61         20.2609    45.9075    65.4337 H            1 ZIO1425   0.0000
   110 H62         22.8513    50.3067    61.3821 H            1 ZIO1425   0.0000
@<TRIPOS>BOND
     1    1    2       1
     2    1   13       1
     3    1   19       1
     4    2    3       1
     5    2   22       1
     6    3    4       1
     7    3   21       1
     8    4    5       1
     9    4   23       1
    10    5   15       1
    11    6    7       1
    12    6   15       1
    13    6   24       1
    14    7    8       1
    15    7   17       1
    16    8    9       1
    17    8   48       1
    18    9   10       1
    19    9   18       1
    20   10   11       1
    21   10   25       1
    22   11   12       1
    23   12   13       1
    24   12   20       1
    25   12   44       1
    26   13   14       2
    27   15   16       2
    28   17   36       1
    29   18   26       1
    30   20   44       1
    31   26   27       1
    32   26   31       1
    33   27   28       1
    34   27   34       1
    35   28   29       1
    36   28   32       1
    37   29   30       1
    38   30   31       1
    39   30   33       1
    40   32   35       1
    41   32   46       1
    42   36   37       1
    43   36   41       1
    44   37   38       1
    45   38   39       1
    46   38   42       1
    47   39   40       1
    48   39   43       1
    49   40   41       1
    50   40   47       1
    51   42   45       1
    52    1   49       1
    53    2   50       1
    54    3   51       1
    55    4   52       1
    56    6   53       1
    57    7   54       1
    58    8   55       1
    59    9   56       1
    60   10   57       1
    61   11   58       1
    62   11   59       1
    63   19   60       1
    64   19   61       1
    65   19   62       1
    66   20   63       1
    67   20   64       1
    68   21   65       1
    69   21   66       1
    70   21   67       1
    71   22   68       1
    72   23   69       1
    73   23   70       1
    74   23   71       1
    75   24   72       1
    76   24   73       1
    77   24   74       1
    78   25   75       1
    79   25   76       1
    80   25   77       1
    81   26   78       1
    82   27   79       1
    83   28   80       1
    84   29   81       1
    85   29   82       1
    86   30   83       1
    87   33   84       1
    88   33   85       1
    89   33   86       1
    90   34   87       1
    91   35   88       1
    92   35   89       1
    93   35   90       1
    94   36   91       1
    95   37   92       1
    96   37   93       1
    97   38   94       1
    98   39   95       1
    99   40   96       1
   100   43   97       1
   101   45   98       1
   102   45   99       1
   103   45  100       1
   104   46  101       1
   105   46  102       1
   106   46  103       1
   107   47  104       1
   108   47  105       1
   109   47  106       1
   110   48  107       1
   111   48  108       1
   112   48  109       1
   113   32  110       1
@<TRIPOS>SUBSTRUCTURE
     1 ZIO1425     1 GROUP             4 B     ZIO     0 **** ZIO B1425
