@<TRIPOS>MOLECULE
1krv_147_2_ligand
   36    37     1     0     0
SMALL
NO_CHARGES


@<TRIPOS>ATOM
     1 C1         -21.3440   -42.7850   -10.2000 C.3          1 147204   0.0000
     2 C2         -20.5600   -43.2550    -8.9360 C.3          1 147204   0.0000
     3 O2         -21.0710   -44.5430    -8.4710 O.3          1 147204   0.0000
     4 C3         -20.6830   -42.1230    -7.8290 C.3          1 147204   0.0000
     5 O3         -19.9420   -42.5490    -6.6350 O.3          1 147204   0.0000
     6 C4         -20.1040   -40.7450    -8.4100 C.3          1 147204   0.0000
     7 O4         -18.7380   -40.8960    -8.8620 O.3          1 147204   0.0000
     8 C5         -20.9370   -40.3100    -9.6940 C.3          1 147204   0.0000
     9 C6         -20.3980   -38.9550   -10.2760 C.3          1 147204   0.0000
    10 O6         -21.1130   -38.4750   -11.4390 O.3          1 147204   0.0000
    11 O5         -20.8510   -41.4610   -10.6950 O.3          1 147204   0.0000
    12 O1'        -21.2230   -43.8130   -11.1820 O.3          1 147204   0.0000
    13 C1'        -21.8730   -43.7790   -12.5460 C.ar         1 147204   0.0000
    14 C2'        -21.7700   -42.7040   -13.4950 C.ar         1 147204   0.0000
    15 C3'        -22.4460   -42.7930   -14.7300 C.ar         1 147204   0.0000
    16 C4'        -23.2620   -44.0080   -15.0310 C.ar         1 147204   0.0000
    17 C5'        -23.3860   -45.0720   -14.1470 C.ar         1 147204   0.0000
    18 C6'        -22.7090   -44.9920   -12.9020 C.ar         1 147204   0.0000
    19 N1'        -23.9440   -43.9670   -16.3940 N.2          1 147204   1.0000
    20 O2'        -24.0330   -44.9930   -17.0200 O.co2        1 147204   0.0000
    21 O3'        -24.5120   -42.8940   -16.7190 O.co2        1 147204  -1.0000
    22 H1         -22.3095   -42.6921    -9.9568 H            1 147204   0.0000
    23 H2         -19.5958   -43.3619    -9.1788 H            1 147204   0.0000
    24 H3         -20.3354   -45.2202    -8.4906 H            1 147204   0.0000
    25 H4         -21.6464   -41.9999    -7.5909 H            1 147204   0.0000
    26 H5         -18.9806   -42.6893    -6.8718 H            1 147204   0.0000
    27 H6         -20.1557   -40.0313    -7.7115 H            1 147204   0.0000
    28 H7         -18.1633   -41.1840    -8.0960 H            1 147204   0.0000
    29 H8         -21.8933   -40.1869    -9.4288 H            1 147204   0.0000
    30 H9         -19.4393   -39.0834   -10.5297 H            1 147204   0.0000
    31 H10        -20.4632   -38.2597    -9.5603 H            1 147204   0.0000
    32 H11        -21.4739   -39.2531   -11.9531 H            1 147204   0.0000
    33 H2'        -21.2212   -41.8961   -13.2804 H            1 147204   0.0000
    34 H3'        -22.3798   -42.0508   -15.3969 H            1 147204   0.0000
    35 H5'        -23.9373   -45.8727   -14.3813 H            1 147204   0.0000
    36 H6'        -22.7847   -45.7468   -12.2504 H            1 147204   0.0000
@<TRIPOS>BOND
     1    1    2       1
     2    1   11       1
     3    1   12       1
     4    2    3       1
     5    2    4       1
     6    4    5       1
     7    4    6       1
     8    6    7       1
     9    6    8       1
    10    8    9       1
    11    8   11       1
    12    9   10       1
    13   12   13       1
    14   13   14      ar
    15   13   18      ar
    16   14   15      ar
    17   15   16      ar
    18   16   17      ar
    19   16   19       1
    20   17   18      ar
    21   19   20      ar
    22   19   21      ar
    23    1   22       1
    24    2   23       1
    25    3   24       1
    26    4   25       1
    27    5   26       1
    28    6   27       1
    29    7   28       1
    30    8   29       1
    31    9   30       1
    32    9   31       1
    33   10   32       1
    34   14   33       1
    35   15   34       1
    36   17   35       1
    37   18   36       1
@<TRIPOS>SUBSTRUCTURE
     1 147204      1 GROUP             4 B     147     0 **** 147 B 204
