@<TRIPOS>MOLECULE
3b1p_NOS_1_ligand
   31    33     1     0     0
SMALL
NO_CHARGES


@<TRIPOS>ATOM
     1 N9          -5.4810   -30.1530     9.0480 N.pl3        1 NOS401   0.0000
     2 C4          -4.8050   -29.0020     9.0890 C.2          1 NOS401   0.0000
     3 N3          -5.0050   -27.7100     8.6710 N.pl3        1 NOS401   0.0000
     4 C2          -4.1180   -26.7300     8.8940 C.2          1 NOS401   0.0000
     5 N1          -2.9470   -27.0110     9.5540 N.2          1 NOS401   0.0000
     6 C6          -2.6360   -28.2580     9.9910 C.2          1 NOS401   0.0000
     7 O6          -1.4950   -28.4470    10.7030 O.2          1 NOS401   0.0000
     8 C5          -3.5940   -29.3550     9.8640 C.2          1 NOS401   0.0000
     9 N7          -3.6330   -30.6650    10.1700 N.2          1 NOS401   0.0000
    10 C8          -4.8080   -31.1750     9.6680 C.2          1 NOS401   0.0000
    11 C5'         -9.6640   -31.6430    10.3790 C.3          1 NOS401   0.0000
    12 O5'        -10.0660   -30.5810    11.2790 O.3          1 NOS401   0.0000
    13 C4'         -8.8810   -31.0090     9.2180 C.3          1 NOS401   0.0000
    14 O4'         -7.6530   -30.4690     9.6940 O.3          1 NOS401   0.0000
    15 C1'         -6.8310   -30.2830     8.4880 C.3          1 NOS401   0.0000
    16 C2'         -7.0920   -31.5330     7.7050 C.3          1 NOS401   0.0000
    17 O2'         -7.0550   -31.1310     6.3310 O.3          1 NOS401   0.0000
    18 C3'         -8.4730   -32.0070     8.1400 C.3          1 NOS401   0.0000
    19 O3'         -9.4230   -31.9600     7.0270 O.3          1 NOS401   0.0000
    20 H1          -4.3080   -25.7993     8.5814 H            1 NOS401   0.0000
    21 H2          -5.1169   -32.1232     9.7420 H            1 NOS401   0.0000
    22 H5'1       -10.4728   -32.1135    10.0262 H            1 NOS401   0.0000
    23 H5'2        -9.0828   -32.2969    10.8635 H            1 NOS401   0.0000
    24 H5'        -10.6434   -29.9287    10.7880 H            1 NOS401   0.0000
    25 H4'         -9.4280   -30.2799     8.8067 H            1 NOS401   0.0000
    26 H1'         -7.1005   -29.4652     7.9795 H            1 NOS401   0.0000
    27 H2'         -6.3977   -32.2272     7.8949 H            1 NOS401   0.0000
    28 H9          -7.2233   -31.9249     5.7468 H            1 NOS401   0.0000
    29 H3'         -8.4229   -32.9310     8.5190 H            1 NOS401   0.0000
    30 H11         -9.4744   -32.8601     6.5944 H            1 NOS401   0.0000
    31 H12         -5.8478   -27.4906     8.1795 H            1 NOS401   0.0000
@<TRIPOS>BOND
     1    1    2       1
     2    1   10       1
     3    1   15       1
     4    2    3       1
     5    2    8       2
     6    3    4       1
     7    4    5       2
     8    5    6       1
     9    6    7       2
    10    6    8       1
    11    8    9       1
    12    9   10       2
    13   11   12       1
    14   11   13       1
    15   13   14       1
    16   13   18       1
    17   14   15       1
    18   15   16       1
    19   16   17       1
    20   16   18       1
    21   18   19       1
    22   19   30       1
    23    4   20       1
    24   10   21       1
    25   11   22       1
    26   11   23       1
    27   12   24       1
    28   13   25       1
    29   15   26       1
    30   16   27       1
    31   17   28       1
    32   18   29       1
    33    3   31       1
@<TRIPOS>SUBSTRUCTURE
     1 NOS401      1 GROUP             4 A     NOS     0 **** NOS A 401
