@<TRIPOS>MOLECULE
5doz_NDP_3_ligand
   73    77     1     0     0
SMALL
NO_CHARGES


@<TRIPOS>ATOM
     1 PA          36.0530    31.9980    40.2780 P.3          1 NDP401   0.0000
     2 O1A         37.0360    32.0920    39.1350 O.co2        1 NDP401   0.0000
     3 O2A         35.4290    30.6660    40.6330 O.co2        1 NDP401  -1.0000
     4 O5B         34.8780    33.0710    40.0140 O.3          1 NDP401   0.0000
     5 C5B         35.1450    34.3380    39.4150 C.3          1 NDP401   0.0000
     6 C4B         33.8670    34.8130    38.7450 C.3          1 NDP401   0.0000
     7 O4B         33.9470    36.1960    38.3810 O.3          1 NDP401   0.0000
     8 C3B         33.5860    34.0760    37.4440 C.3          1 NDP401   0.0000
     9 O3B         32.8610    32.8620    37.6750 O.3          1 NDP401   0.0000
    10 C2B         32.7560    35.0640    36.6580 C.3          1 NDP401   0.0000
    11 O2B         31.3880    34.8150    36.9490 O.3          1 NDP401   0.0000
    12 C1B         33.1230    36.4280    37.2340 C.3          1 NDP401   0.0000
    13 N9A         33.7940    37.3010    36.2340 N.pl3        1 NDP401   0.0000
    14 C8A         34.7460    36.9440    35.3450 C.2          1 NDP401   0.0000
    15 N7A         35.1300    38.0020    34.5840 N.2          1 NDP401   0.0000
    16 C5A         34.4120    39.0680    34.9800 C.ar         1 NDP401   0.0000
    17 C6A         34.3190    40.5020    34.6010 C.ar         1 NDP401   0.0000
    18 N6A         35.0960    41.0090    33.6140 N.pl3        1 NDP401   0.0000
    19 N1A         33.4340    41.2820    35.2730 N.ar         1 NDP401   0.0000
    20 C2A         32.6590    40.7880    36.2610 C.ar         1 NDP401   0.0000
    21 N3A         32.6930    39.4980    36.6570 N.ar         1 NDP401   0.0000
    22 C4A         33.5340    38.6050    36.0700 C.ar         1 NDP401   0.0000
    23 O3          36.7920    32.5790    41.5870 O.3          1 NDP401   0.0000
    24 PN          36.1900    32.4100    43.0730 P.3          1 NDP401   0.0000
    25 O1N         34.6820    32.4440    42.9960 O.co2        1 NDP401   0.0000
    26 O2N         36.8810    31.2490    43.7470 O.co2        1 NDP401  -1.0000
    27 O5D         36.7010    33.7660    43.7690 O.3          1 NDP401   0.0000
    28 C5D         36.3430    35.0390    43.2350 C.3          1 NDP401   0.0000
    29 C4D         37.1310    36.1290    43.9530 C.3          1 NDP401   0.0000
    30 O4D         37.2000    35.8690    45.3630 O.3          1 NDP401   0.0000
    31 C3D         38.5620    36.2160    43.4480 C.3          1 NDP401   0.0000
    32 O3D         38.8670    37.5990    43.2670 O.3          1 NDP401   0.0000
    33 C2D         39.4020    35.6270    44.5660 C.3          1 NDP401   0.0000
    34 O2D         40.6950    36.2270    44.6590 O.3          1 NDP401   0.0000
    35 C1D         38.5620    35.9130    45.8000 C.3          1 NDP401   0.0000
    36 N1N         38.8000    34.9730    46.9000 N.ar         1 NDP401   1.0000
    37 C2N         38.7260    35.4690    48.1440 C.ar         1 NDP401   0.0000
    38 C3N         39.1270    34.7300    49.2550 C.ar         1 NDP401   0.0000
    39 C7N         39.2530    35.4260    50.5880 C.2          1 NDP401   0.0000
    40 O7N         39.6060    34.8020    51.5770 O.2          1 NDP401   0.0000
    41 N7N         38.9770    36.7310    50.6640 N.am         1 NDP401   0.0000
    42 C4N         39.2980    33.2260    49.1290 C.ar         1 NDP401   0.0000
    43 C5N         39.2270    32.7810    47.7340 C.ar         1 NDP401   0.0000
    44 C6N         38.8530    33.6420    46.7010 C.ar         1 NDP401   0.0000
    45 P2B         30.2000    35.1960    35.9380 P.3          1 NDP401   0.0000
    46 O1X         30.5820    34.5540    34.6260 O.co2        1 NDP401   0.0000
    47 O2X         29.0030    34.5730    36.6170 O.co2        1 NDP401  -1.0000
    48 O3X         30.1760    36.7060    35.9030 O.co2        1 NDP401  -1.0000
    49 H5B1        35.8720    34.2462    38.7346 H            1 NDP401   0.0000
    50 H5B2        35.4255    34.9935    40.1162 H            1 NDP401   0.0000
    51 H4B         33.0983    34.6811    39.3709 H            1 NDP401   0.0000
    52 H3B         34.4415    33.8826    36.9636 H            1 NDP401   0.0000
    53 H5          31.9883    32.8971    37.1879 H            1 NDP401   0.0000
    54 H2B         32.9438    35.0111    35.6772 H            1 NDP401   0.0000
    55 H1B         32.2832    36.8800    37.5348 H            1 NDP401   0.0000
    56 H8A         35.1198    36.0206    35.2581 H            1 NDP401   0.0000
    57 H6A1        35.0244    41.9756    33.3679 H            1 NDP401   0.0000
    58 H6A2        35.7412    40.4167    33.1314 H            1 NDP401   0.0000
    59 H2A         32.0269    41.4096    36.7237 H            1 NDP401   0.0000
    60 H5D1        35.3638    35.1930    43.3674 H            1 NDP401   0.0000
    61 H5D2        36.5550    35.0626    42.2580 H            1 NDP401   0.0000
    62 H4D         36.6792    37.0088    43.8055 H            1 NDP401   0.0000
    63 H3D         38.6788    35.7037    42.5972 H            1 NDP401   0.0000
    64 H16         38.7738    38.0779    44.1399 H            1 NDP401   0.0000
    65 H2D         39.4937    34.6394    44.4384 H            1 NDP401   0.0000
    66 H18         41.2054    35.8046    45.4080 H            1 NDP401   0.0000
    67 H1D         38.7663    36.8383    46.1193 H            1 NDP401   0.0000
    68 H2N         38.3732    36.3951    48.2778 H            1 NDP401   0.0000
    69 H7N1        39.0551    37.2084    51.5392 H            1 NDP401   0.0000
    70 H7N2        38.6923    37.2303    49.8457 H            1 NDP401   0.0000
    71 H4N         39.4419    32.6123    49.9053 H            1 NDP401   0.0000
    72 H5N         39.4534    31.8317    47.5158 H            1 NDP401   0.0000
    73 H6N         38.6219    33.2665    45.8034 H            1 NDP401   0.0000
@<TRIPOS>BOND
     1    1    2      ar
     2    1    3      ar
     3    1    4       1
     4    1   23       1
     5    4    5       1
     6    5    6       1
     7    6    7       1
     8    6    8       1
     9    7   12       1
    10    8    9       1
    11    8   10       1
    12   10   11       1
    13   10   12       1
    14   11   45       1
    15   12   13       1
    16   13   14       1
    17   13   22       1
    18   14   15       2
    19   15   16       1
    20   16   17      ar
    21   16   22      ar
    22   17   18       1
    23   17   19      ar
    24   19   20      ar
    25   20   21      ar
    26   21   22      ar
    27   23   24       1
    28   24   25      ar
    29   24   26      ar
    30   24   27       1
    31   27   28       1
    32   28   29       1
    33   29   30       1
    34   29   31       1
    35   30   35       1
    36   31   32       1
    37   31   33       1
    38   33   34       1
    39   33   35       1
    40   35   36       1
    41   36   37      ar
    42   36   44      ar
    43   37   38      ar
    44   38   39       1
    45   38   42      ar
    46   39   40       2
    47   39   41      am
    48   42   43      ar
    49   43   44      ar
    50   45   46      ar
    51   45   47      ar
    52   45   48      ar
    53   43   72       1
    54    5   49       1
    55    5   50       1
    56    6   51       1
    57    8   52       1
    58    9   53       1
    59   10   54       1
    60   12   55       1
    61   14   56       1
    62   18   57       1
    63   18   58       1
    64   20   59       1
    65   44   73       1
    66   28   60       1
    67   28   61       1
    68   29   62       1
    69   31   63       1
    70   32   64       1
    71   33   65       1
    72   34   66       1
    73   35   67       1
    74   37   68       1
    75   41   69       1
    76   41   70       1
    77   42   71       1
@<TRIPOS>SUBSTRUCTURE
     1 NDP401      1 GROUP             4 C     NDP     0 **** NDP C 401
