@<TRIPOS>MOLECULE
1o6k_ANP_1_ligand
   44    46     1     0     0
SMALL
NO_CHARGES


@<TRIPOS>ATOM
     1 PG          39.4170    25.8470   173.8960 P.3          1 ANP1480   0.0000
     2 O1G         37.9690    26.0730   173.4740 O.co2        1 ANP1480   0.0000
     3 O2G         39.7440    26.2450   175.2740 O.co2        1 ANP1480  -1.0000
     4 O3G         39.8500    24.4890   173.6090 O.co2        1 ANP1480  -1.0000
     5 PB          39.8610    27.8910   171.7460 P.3          1 ANP1480   0.0000
     6 O1B         39.9520    27.1250   170.5250 O.co2        1 ANP1480   0.0000
     7 O2B         38.5410    28.4770   172.0620 O.co2        1 ANP1480  -1.0000
     8 N3B         40.3440    26.9130   173.0190 N.3          1 ANP1480   0.0000
     9 PA          41.2390    30.2190   172.7760 P.3          1 ANP1480   0.0000
    10 O1A         40.4790    31.4390   172.5040 O.co2        1 ANP1480   0.0000
    11 O2A         41.1740    29.6150   174.1360 O.co2        1 ANP1480  -1.0000
    12 O3A         40.9380    29.0830   171.6600 O.3          1 ANP1480   0.0000
    13 O5'         42.7740    30.5270   172.4250 O.3          1 ANP1480   0.0000
    14 C5'         43.7610    29.4880   172.5800 C.3          1 ANP1480   0.0000
    15 C4'         44.9800    30.0300   173.2940 C.3          1 ANP1480   0.0000
    16 O4'         45.4240    31.2540   172.6620 O.3          1 ANP1480   0.0000
    17 C3'         44.7010    30.4000   174.7430 C.3          1 ANP1480   0.0000
    18 O3'         44.7080    29.2850   175.6360 O.3          1 ANP1480   0.0000
    19 C2'         45.7590    31.4450   174.9940 C.3          1 ANP1480   0.0000
    20 O2'         47.0070    30.8170   175.3420 O.3          1 ANP1480   0.0000
    21 C1'         45.9050    32.1710   173.6630 C.3          1 ANP1480   0.0000
    22 N9          45.1150    33.4140   173.6600 N.pl3        1 ANP1480   0.0000
    23 C8          43.7520    33.5840   173.4780 C.2          1 ANP1480   0.0000
    24 N7          43.3570    34.8110   173.5400 N.2          1 ANP1480   0.0000
    25 C5          44.5240    35.5230   173.7780 C.ar         1 ANP1480   0.0000
    26 C6          44.7770    36.9020   173.9520 C.ar         1 ANP1480   0.0000
    27 N6          43.8020    37.8130   173.9030 N.pl3        1 ANP1480   0.0000
    28 N1          46.0840    37.2970   174.1780 N.ar         1 ANP1480   0.0000
    29 C2          47.0590    36.3700   174.2240 C.ar         1 ANP1480   0.0000
    30 N3          46.9290    35.0380   174.0750 N.ar         1 ANP1480   0.0000
    31 C4          45.6100    34.6830   173.8510 C.ar         1 ANP1480   0.0000
    32 H3B         41.0849    26.3558   172.6439 H            1 ANP1480   0.0000
    33 H5'1        44.0293    29.1497   171.6780 H            1 ANP1480   0.0000
    34 H5'2        43.3708    28.7384   173.1146 H            1 ANP1480   0.0000
    35 H4'         45.7145    29.3523   173.2593 H            1 ANP1480   0.0000
    36 H3'         43.8039    30.8391   174.7911 H            1 ANP1480   0.0000
    37 H6          44.5185    29.6012   176.5656 H            1 ANP1480   0.0000
    38 H2'         45.4686    32.0774   175.7122 H            1 ANP1480   0.0000
    39 H8          46.8258    29.9499   175.8061 H            1 ANP1480   0.0000
    40 H1'         46.8682    32.3811   173.4954 H            1 ANP1480   0.0000
    41 H10         43.1274    32.8207   173.3126 H            1 ANP1480   0.0000
    42 H11         44.0158    38.7815   174.0304 H            1 ANP1480   0.0000
    43 H12         42.8580    37.5267   173.7389 H            1 ANP1480   0.0000
    44 H13         47.9854    36.7092   174.3874 H            1 ANP1480   0.0000
@<TRIPOS>BOND
     1    1    2      ar
     2    1    3      ar
     3    1    4      ar
     4    1    8       1
     5    5    6      ar
     6    5    7      ar
     7    5    8       1
     8    5   12       1
     9    9   10      ar
    10    9   11      ar
    11    9   12       1
    12    9   13       1
    13   13   14       1
    14   14   15       1
    15   15   16       1
    16   15   17       1
    17   16   21       1
    18   17   18       1
    19   17   19       1
    20   19   20       1
    21   19   21       1
    22   21   22       1
    23   22   23       1
    24   22   31       1
    25   23   24       2
    26   24   25       1
    27   25   26      ar
    28   25   31      ar
    29   26   27       1
    30   26   28      ar
    31   28   29      ar
    32   29   30      ar
    33   30   31      ar
    34   29   44       1
    35   27   43       1
    36   27   42       1
    37    8   32       1
    38   23   41       1
    39   14   33       1
    40   14   34       1
    41   15   35       1
    42   17   36       1
    43   18   37       1
    44   19   38       1
    45   20   39       1
    46   21   40       1
@<TRIPOS>SUBSTRUCTURE
     1 ANP1480     1 GROUP             4 A     ANP     0 **** ANP A1480
