@<TRIPOS>MOLECULE
3ihg_FAD_4_ligand
   84    89     1     0     0
SMALL
NO_CHARGES


@<TRIPOS>ATOM
     1 PA          26.1490   100.6990   -35.5550 P.3          1 FAD536   0.0000
     2 O1A         25.9770   100.9320   -37.0370 O.co2        1 FAD536   0.0000
     3 O2A         27.3450   101.1000   -34.7600 O.co2        1 FAD536  -1.0000
     4 O5B         24.9230   101.5060   -34.9130 O.3          1 FAD536   0.0000
     5 C5B         24.8020   101.5960   -33.4970 C.3          1 FAD536   0.0000
     6 C4B         23.9620   102.8660   -33.2650 C.3          1 FAD536   0.0000
     7 O4B         23.4490   102.9190   -31.9120 O.3          1 FAD536   0.0000
     8 C3B         24.7140   104.1430   -33.4960 C.3          1 FAD536   0.0000
     9 O3B         23.8910   104.9430   -34.3130 O.3          1 FAD536   0.0000
    10 C2B         24.7820   104.8160   -32.1350 C.3          1 FAD536   0.0000
    11 O2B         24.5150   106.2040   -32.2500 O.3          1 FAD536   0.0000
    12 C1B         23.5930   104.2510   -31.3980 C.3          1 FAD536   0.0000
    13 N9A         23.8260   104.1830   -29.9350 N.pl3        1 FAD536   0.0000
    14 C8A         24.9370   103.7440   -29.3280 C.2          1 FAD536   0.0000
    15 N7A         24.7320   103.7540   -27.9900 N.2          1 FAD536   0.0000
    16 C5A         23.4910   104.2130   -27.7510 C.ar         1 FAD536   0.0000
    17 C6A         22.7680   104.4610   -26.5990 C.ar         1 FAD536   0.0000
    18 N6A         23.3020   104.2170   -25.3700 N.pl3        1 FAD536   0.0000
    19 N1A         21.5160   104.9170   -26.7090 N.ar         1 FAD536   0.0000
    20 C2A         20.9940   105.1570   -27.9010 C.ar         1 FAD536   0.0000
    21 N3A         21.6700   104.9500   -29.0270 N.ar         1 FAD536   0.0000
    22 C4A         22.9190   104.4570   -28.9880 C.ar         1 FAD536   0.0000
    23 N1          31.4640    98.9870   -42.3390 N.2          1 FAD536   0.0000
    24 C2          32.0690    98.8430   -43.5640 C.2          1 FAD536   0.0000
    25 O2          31.9300    97.7930   -44.2880 O.2          1 FAD536   0.0000
    26 N3          32.8400    99.8450   -44.0550 N.pl3        1 FAD536   0.0000
    27 C4          32.9890   100.9980   -43.4050 C.2          1 FAD536   0.0000
    28 O4          33.6980   101.9000   -43.9020 O.2          1 FAD536   0.0000
    29 C4X         32.3420   101.1860   -42.0860 C.2          1 FAD536   0.0000
    30 N5          32.5230   102.3390   -41.3720 N.2          1 FAD536   0.0000
    31 C5X         31.9240   102.5390   -40.2010 C.ar         1 FAD536   0.0000
    32 C6          32.1080   103.7430   -39.5180 C.ar         1 FAD536   0.0000
    33 C7          31.5090   103.9240   -38.2680 C.ar         1 FAD536   0.0000
    34 C7M         31.7150   105.2280   -37.5500 C.3          1 FAD536   0.0000
    35 C8          30.7210   102.9240   -37.7020 C.ar         1 FAD536   0.0000
    36 C8M         30.0290   103.0850   -36.3620 C.3          1 FAD536   0.0000
    37 C9          30.5570   101.7270   -38.4020 C.ar         1 FAD536   0.0000
    38 C9A         31.1730   101.5150   -39.6370 C.ar         1 FAD536   0.0000
    39 N10         30.9000   100.3320   -40.3680 N.pl3        1 FAD536   0.0000
    40 C10         31.6050   100.1200   -41.5890 C.2          1 FAD536   0.0000
    41 C1'         30.3660    99.1820   -39.6350 C.3          1 FAD536   0.0000
    42 C2'         28.8970    99.1460   -40.0670 C.3          1 FAD536   0.0000
    43 O2'         28.3640   100.4850   -40.0900 O.3          1 FAD536   0.0000
    44 C3'         28.0790    98.3260   -39.0880 C.3          1 FAD536   0.0000
    45 O3'         28.6770    97.0360   -38.9660 O.3          1 FAD536   0.0000
    46 C4'         26.5990    98.2350   -39.4100 C.3          1 FAD536   0.0000
    47 O4'         26.0660    99.4990   -39.0340 O.3          1 FAD536   0.0000
    48 C5'         25.8910    97.3140   -38.4570 C.3          1 FAD536   0.0000
    49 O5'         26.1560    97.7450   -37.1080 O.3          1 FAD536   0.0000
    50 P           25.0160    98.1620   -36.0280 P.3          1 FAD536   0.0000
    51 O1P         24.5930    97.0360   -35.1400 O.co2        1 FAD536   0.0000
    52 O2P         23.9470    98.8510   -36.8650 O.co2        1 FAD536  -1.0000
    53 O3P         25.8360    99.1800   -35.1090 O.3          1 FAD536   0.0000
    54 H5B1        25.7018   101.6838   -33.0697 H            1 FAD536   0.0000
    55 H5B2        24.3357   100.7912   -33.1297 H            1 FAD536   0.0000
    56 H4B         23.1840   102.8443   -33.8929 H            1 FAD536   0.0000
    57 H3B         25.6183   103.9897   -33.8945 H            1 FAD536   0.0000
    58 H5          23.0243   105.1161   -33.8452 H            1 FAD536   0.0000
    59 H2B         25.6442   104.6326   -31.6628 H            1 FAD536   0.0000
    60 H7          23.5331   106.3641   -32.1489 H            1 FAD536   0.0000
    61 H1B         22.7739   104.7899   -31.5948 H            1 FAD536   0.0000
    62 H8A         25.7777   103.4568   -29.7871 H            1 FAD536   0.0000
    63 H6A1        22.7659   104.4018   -24.5463 H            1 FAD536   0.0000
    64 H6A2        24.2301   103.8531   -25.2914 H            1 FAD536   0.0000
    65 H2A         20.0586   105.5062   -27.9569 H            1 FAD536   0.0000
    66 H13         33.3092    99.7146   -44.9284 H            1 FAD536   0.0000
    67 H14         32.6641   104.4703   -39.9201 H            1 FAD536   0.0000
    68 H7M1        31.2291   105.2078   -36.6762 H            1 FAD536   0.0000
    69 H7M2        32.6915   105.3672   -37.3852 H            1 FAD536   0.0000
    70 H7M3        31.3616   105.9767   -38.1108 H            1 FAD536   0.0000
    71 H8M1        29.5196   102.2516   -36.1477 H            1 FAD536   0.0000
    72 H8M2        30.7129   103.2497   -35.6513 H            1 FAD536   0.0000
    73 H8M3        29.3982   103.8599   -36.4035 H            1 FAD536   0.0000
    74 H21         29.9858   101.0057   -38.0102 H            1 FAD536   0.0000
    75 H1'1        30.4465    99.3170   -38.6474 H            1 FAD536   0.0000
    76 H1'2        30.8376    98.3396   -39.8958 H            1 FAD536   0.0000
    77 H2'         28.8273    98.7433   -40.9797 H            1 FAD536   0.0000
    78 H25         27.6485   100.5470   -40.7858 H            1 FAD536   0.0000
    79 H3'         28.1578    98.7709   -38.1959 H            1 FAD536   0.0000
    80 H27         28.9450    96.8814   -38.0151 H            1 FAD536   0.0000
    81 H4'         26.4240    98.0101   -40.3685 H            1 FAD536   0.0000
    82 H29         25.3663    99.3700   -38.3313 H            1 FAD536   0.0000
    83 H5'1        26.2248    96.3798   -38.5826 H            1 FAD536   0.0000
    84 H5'2        24.9067    97.3426   -38.6313 H            1 FAD536   0.0000
@<TRIPOS>BOND
     1    1    2      ar
     2    1    3      ar
     3    1    4       1
     4    1   53       1
     5    4    5       1
     6    5    6       1
     7    6    7       1
     8    6    8       1
     9    7   12       1
    10    8    9       1
    11    8   10       1
    12   10   11       1
    13   10   12       1
    14   12   13       1
    15   13   14       1
    16   13   22       1
    17   14   15       2
    18   15   16       1
    19   16   17      ar
    20   16   22      ar
    21   17   18       1
    22   17   19      ar
    23   19   20      ar
    24   20   21      ar
    25   21   22      ar
    26   23   24       1
    27   23   40       2
    28   24   25       2
    29   24   26       1
    30   26   27       1
    31   27   28       2
    32   27   29       1
    33   29   30       2
    34   29   40       1
    35   30   31       1
    36   31   32      ar
    37   31   38      ar
    38   32   33      ar
    39   33   34       1
    40   33   35      ar
    41   35   36       1
    42   35   37      ar
    43   37   38      ar
    44   38   39       1
    45   39   40       1
    46   39   41       1
    47   41   42       1
    48   42   43       1
    49   42   44       1
    50   44   45       1
    51   44   46       1
    52   46   47       1
    53   46   48       1
    54   48   49       1
    55   49   50       1
    56   50   51      ar
    57   50   52      ar
    58   50   53       1
    59   48   84       1
    60    5   54       1
    61    5   55       1
    62    6   56       1
    63    8   57       1
    64    9   58       1
    65   10   59       1
    66   11   60       1
    67   12   61       1
    68   14   62       1
    69   18   63       1
    70   18   64       1
    71   20   65       1
    72   26   66       1
    73   32   67       1
    74   34   68       1
    75   34   69       1
    76   34   70       1
    77   36   71       1
    78   36   72       1
    79   36   73       1
    80   37   74       1
    81   41   75       1
    82   41   76       1
    83   42   77       1
    84   43   78       1
    85   44   79       1
    86   45   80       1
    87   46   81       1
    88   47   82       1
    89   48   83       1
@<TRIPOS>SUBSTRUCTURE
     1 FAD536      1 GROUP             4 C     FAD     0 **** FAD C 536
