@<TRIPOS>MOLECULE
1mf0_GDP_1_ligand
   41    43     1     0     0
SMALL
NO_CHARGES


@<TRIPOS>ATOM
     1 PB          64.5270    53.5300    36.4240 P.3          1 GDP1452   0.0000
     2 O1B         64.3020    52.5350    37.5510 O.co2        1 GDP1452   0.0000
     3 O2B         63.7600    54.8260    36.6270 O.co2        1 GDP1452  -1.0000
     4 O3B         65.9890    53.7710    36.1070 O.co2        1 GDP1452  -1.0000
     5 O3A         63.9110    52.8400    35.0820 O.3          1 GDP1452   0.0000
     6 PA          62.3370    52.9400    34.6730 P.3          1 GDP1452   0.0000
     7 O1A         61.6670    51.7900    35.3260 O.co2        1 GDP1452   0.0000
     8 O2A         61.9680    54.3230    35.0800 O.co2        1 GDP1452  -1.0000
     9 O5'         62.0550    52.8140    33.1130 O.3          1 GDP1452   0.0000
    10 C5'         62.8500    51.9740    32.2910 C.3          1 GDP1452   0.0000
    11 C4'         61.9780    50.9930    31.5500 C.3          1 GDP1452   0.0000
    12 O4'         62.7860    50.1810    30.6700 O.3          1 GDP1452   0.0000
    13 C3'         61.2000    50.0380    32.4420 C.3          1 GDP1452   0.0000
    14 O3'         59.8420    49.9640    32.0200 O.3          1 GDP1452   0.0000
    15 C2'         61.9470    48.7160    32.3090 C.3          1 GDP1452   0.0000
    16 O2'         61.0910    47.6010    32.4560 O.3          1 GDP1452   0.0000
    17 C1'         62.5060    48.8170    30.8920 C.3          1 GDP1452   0.0000
    18 N9          63.7520    48.0890    30.6970 N.pl3        1 GDP1452   0.0000
    19 C8          64.8360    48.0500    31.5380 C.2          1 GDP1452   0.0000
    20 N7          65.8280    47.3450    31.0600 N.2          1 GDP1452   1.0000
    21 C5          65.3610    46.8830    29.8350 C.2          1 GDP1452   0.0000
    22 C6          65.9880    46.0640    28.8530 C.2          1 GDP1452   0.0000
    23 O6          67.1220    45.5710    28.8620 O.2          1 GDP1452   0.0000
    24 N1          65.1450    45.8350    27.7690 N.pl3        1 GDP1452   0.0000
    25 C2          63.8660    46.3250    27.6410 C.2          1 GDP1452   0.0000
    26 N2          63.2010    45.9850    26.5260 N.pl3        1 GDP1452   0.0000
    27 N3          63.2790    47.0900    28.5410 N.2          1 GDP1452   0.0000
    28 C4          64.0770    47.3260    29.6050 C.2          1 GDP1452   0.0000
    29 H5'1        63.4997    51.4723    32.8621 H            1 GDP1452   0.0000
    30 H5'2        63.3500    52.5351    31.6313 H            1 GDP1452   0.0000
    31 H4'         61.3255    51.5079    30.9940 H            1 GDP1452   0.0000
    32 H3'         61.2411    50.3539    33.3899 H            1 GDP1452   0.0000
    33 H5          59.8036    49.6344    31.0767 H            1 GDP1452   0.0000
    34 H2'         62.6928    48.6707    32.9736 H            1 GDP1452   0.0000
    35 H7          60.1566    47.9174    32.6196 H            1 GDP1452   0.0000
    36 H1'         61.8222    48.5002    30.2347 H            1 GDP1452   0.0000
    37 H9          64.8642    48.5126    32.4241 H            1 GDP1452   0.0000
    38 H10         65.4975    45.2690    27.0237 H            1 GDP1452   0.0000
    39 H11         62.2676    46.3132    26.3808 H            1 GDP1452   0.0000
    40 H12         63.6389    45.4034    25.8404 H            1 GDP1452   0.0000
    41 H13         66.7197    47.1765    31.4801 H            1 GDP1452   0.0000
@<TRIPOS>BOND
     1    1    2      ar
     2    1    3      ar
     3    1    4      ar
     4    1    5       1
     5    5    6       1
     6    6    7      ar
     7    6    8      ar
     8    6    9       1
     9    9   10       1
    10   10   11       1
    11   11   12       1
    12   11   13       1
    13   12   17       1
    14   13   14       1
    15   13   15       1
    16   15   16       1
    17   15   17       1
    18   17   18       1
    19   18   19       1
    20   18   28       1
    21   19   20       2
    22   20   21       1
    23   21   22       1
    24   21   28       2
    25   22   23       2
    26   22   24       1
    27   24   25       1
    28   25   26       1
    29   25   27       2
    30   27   28       1
    31   26   40       1
    32   26   39       1
    33   24   38       1
    34   10   29       1
    35   10   30       1
    36   11   31       1
    37   13   32       1
    38   14   33       1
    39   15   34       1
    40   16   35       1
    41   17   36       1
    42   19   37       1
    43   20   41       1
@<TRIPOS>SUBSTRUCTURE
     1 GDP1452     1 GROUP             4 A     GDP     0 **** GDP A1452
