@<TRIPOS>MOLECULE
4h73_NDP_8_ligand
   42    44     1     0     0
SMALL
NO_CHARGES


@<TRIPOS>ATOM
     1 PA          40.3670   -56.1030    75.3730 P.3          1 NDP500   0.0000
     2 O1A         41.4840   -56.8910    75.9490 O.co2        1 NDP500   0.0000
     3 O2A         39.0920   -56.5460    75.9750 O.co2        1 NDP500  -1.0000
     4 O5B         40.3550   -56.3530    73.8170 O.3          1 NDP500   0.0000
     5 C5B         39.1830   -56.1790    73.0510 C.3          1 NDP500   0.0000
     6 C4B         38.6890   -57.3740    72.3110 C.3          1 NDP500   0.0000
     7 O4B         39.5320   -58.4640    72.5450 O.3          1 NDP500   0.0000
     8 C3B         37.3580   -57.7510    72.8080 C.3          1 NDP500   0.0000
     9 O3B         36.5060   -57.9490    71.6950 O.3          1 NDP500   0.0000
    10 C2B         37.6230   -58.9260    73.5510 C.3          1 NDP500   0.0000
    11 O2B         36.5120   -59.7910    73.7030 O.3          1 NDP500   0.0000
    12 C1B         38.7330   -59.5620    72.8370 C.3          1 NDP500   0.0000
    13 N9A         39.4720   -60.5600    73.6160 N.pl3        1 NDP500   0.0000
    14 C8A         39.6660   -60.7520    74.9370 C.2          1 NDP500   0.0000
    15 N7A         40.4310   -61.8540    75.0840 N.2          1 NDP500   0.0000
    16 C5A         40.7220   -62.3550    73.8500 C.ar         1 NDP500   0.0000
    17 C6A         41.4620   -63.4520    73.3850 C.ar         1 NDP500   0.0000
    18 N6A         42.1400   -64.3630    74.3470 N.pl3        1 NDP500   0.0000
    19 N1A         41.5630   -63.6990    72.0630 N.ar         1 NDP500   0.0000
    20 C2A         40.9560   -62.8700    71.1970 C.ar         1 NDP500   0.0000
    21 N3A         40.2310   -61.8110    71.5870 N.ar         1 NDP500   0.0000
    22 C4A         40.1010   -61.5250    72.9010 C.ar         1 NDP500   0.0000
    23 O3          40.5980   -54.5640    75.6820 O.3          1 NDP500   0.0000
    24 PN          39.3900   -53.4820    75.8720 P.3          1 NDP500   0.0000
    25 O1N         39.1150   -53.3240    77.3590 O.co2        1 NDP500   0.0000
    26 O2N         38.1360   -53.9470    75.1620 O.co2        1 NDP500  -1.0000
    27 O5D         39.8000   -52.0990    75.2700 O.co2        1 NDP500  -1.0000
    28 P2B         35.7300   -59.6890    75.0730 P.3          1 NDP500   0.0000
    29 O1X         36.7070   -59.6610    76.1920 O.co2        1 NDP500   0.0000
    30 O2X         34.9690   -58.4320    75.0120 O.co2        1 NDP500  -1.0000
    31 O3X         34.8550   -60.8600    75.2800 O.co2        1 NDP500  -1.0000
    32 H5B1        39.3624   -55.4591    72.3805 H            1 NDP500   0.0000
    33 H5B2        38.4560   -55.8835    73.6708 H            1 NDP500   0.0000
    34 H4B         38.6464   -57.1774    71.3314 H            1 NDP500   0.0000
    35 H3B         36.9928   -57.0361    73.4042 H            1 NDP500   0.0000
    36 H5          36.4468   -57.1026    71.1658 H            1 NDP500   0.0000
    37 H2B         37.9431   -58.6597    74.4602 H            1 NDP500   0.0000
    38 H1B         38.3991   -59.9734    71.9889 H            1 NDP500   0.0000
    39 H8A         39.3073   -60.1804    75.6750 H            1 NDP500   0.0000
    40 H6A1        42.6664   -65.1437    74.0102 H            1 NDP500   0.0000
    41 H6A2        42.0692   -64.1944    75.3301 H            1 NDP500   0.0000
    42 H2A         41.0489   -63.0507    70.2179 H            1 NDP500   0.0000
@<TRIPOS>BOND
     1    1    2      ar
     2    1    3      ar
     3    1    4       1
     4    1   23       1
     5    4    5       1
     6    5    6       1
     7    6    7       1
     8    6    8       1
     9    7   12       1
    10    8    9       1
    11    8   10       1
    12   10   11       1
    13   10   12       1
    14   11   28       1
    15   12   13       1
    16   13   14       1
    17   13   22       1
    18   14   15       2
    19   15   16       1
    20   16   17      ar
    21   16   22      ar
    22   17   18       1
    23   17   19      ar
    24   19   20      ar
    25   20   21      ar
    26   21   22      ar
    27   23   24       1
    28   24   25      ar
    29   24   26      ar
    30   24   27      ar
    31   28   29      ar
    32   28   30      ar
    33   28   31      ar
    34   20   42       1
    35    5   32       1
    36    5   33       1
    37    6   34       1
    38    8   35       1
    39    9   36       1
    40   10   37       1
    41   12   38       1
    42   14   39       1
    43   18   40       1
    44   18   41       1
@<TRIPOS>SUBSTRUCTURE
     1 NDP500      1 GROUP             4 H     NDP     0 **** NDP H 500
