@<TRIPOS>MOLECULE
2yy7_NAD_1_ligand
   70    74     1     0     0
SMALL
NO_CHARGES


@<TRIPOS>ATOM
     1 PA          43.7700    22.8230    46.0010 P.3          1 NAD3001   0.0000
     2 O1A         44.8720    23.2540    46.9060 O.co2        1 NAD3001   0.0000
     3 O2A         44.1920    22.3700    44.6500 O.co2        1 NAD3001  -1.0000
     4 O5B         42.8180    21.7860    46.7250 O.3          1 NAD3001   0.0000
     5 C5B         41.9460    20.9650    46.0030 C.3          1 NAD3001   0.0000
     6 C4B         41.6730    19.7110    46.7970 C.3          1 NAD3001   0.0000
     7 O4B         40.6410    18.9890    46.1220 O.3          1 NAD3001   0.0000
     8 C3B         42.9220    18.8030    46.8950 C.3          1 NAD3001   0.0000
     9 O3B         43.2110    18.4460    48.2580 O.3          1 NAD3001   0.0000
    10 C2B         42.5580    17.6170    45.9930 C.3          1 NAD3001   0.0000
    11 O2B         43.1460    16.4030    46.4270 O.3          1 NAD3001   0.0000
    12 C1B         41.0250    17.6160    46.0920 C.3          1 NAD3001   0.0000
    13 N9A         40.3840    16.8720    44.9980 N.pl3        1 NAD3001   0.0000
    14 C8A         40.7390    16.9150    43.6500 C.2          1 NAD3001   0.0000
    15 N7A         39.9310    16.0790    42.9820 N.2          1 NAD3001   0.0000
    16 C5A         39.0750    15.5390    43.8780 C.ar         1 NAD3001   0.0000
    17 C6A         38.0700    14.5960    43.7310 C.ar         1 NAD3001   0.0000
    18 N6A         37.8610    14.0170    42.5680 N.pl3        1 NAD3001   0.0000
    19 N1A         37.3640    14.1950    44.8350 N.ar         1 NAD3001   0.0000
    20 C2A         37.6380    14.7200    46.0890 C.ar         1 NAD3001   0.0000
    21 N3A         38.6550    15.6390    46.2620 N.ar         1 NAD3001   0.0000
    22 C4A         39.3590    16.0240    45.1480 C.ar         1 NAD3001   0.0000
    23 O3          42.7990    24.0710    45.7240 O.3          1 NAD3001   0.0000
    24 PN          42.4020    25.3040    46.7020 P.3          1 NAD3001   0.0000
    25 O1N         42.1270    24.8510    48.1060 O.co2        1 NAD3001   0.0000
    26 O2N         43.3580    26.3980    46.3800 O.co2        1 NAD3001  -1.0000
    27 O5D         40.9850    25.7560    46.0510 O.3          1 NAD3001   0.0000
    28 C5D         39.7450    25.2430    46.5600 C.3          1 NAD3001   0.0000
    29 C4D         38.5770    25.9310    45.8010 C.3          1 NAD3001   0.0000
    30 O4D         38.7260    27.3380    45.8590 O.3          1 NAD3001   0.0000
    31 C3D         38.5380    25.6010    44.3060 C.3          1 NAD3001   0.0000
    32 O3D         37.1780    25.5780    43.8830 O.3          1 NAD3001   0.0000
    33 C2D         39.1930    26.7990    43.6610 C.3          1 NAD3001   0.0000
    34 O2D         38.7970    26.8560    42.3110 O.3          1 NAD3001   0.0000
    35 C1D         38.7100    27.9460    44.5490 C.3          1 NAD3001   0.0000
    36 N1N         39.6230    29.1060    44.4250 N.ar         1 NAD3001   1.0000
    37 C2N         40.9010    29.0320    44.9410 C.ar         1 NAD3001   0.0000
    38 C3N         41.7510    30.1260    44.8190 C.ar         1 NAD3001   0.0000
    39 C7N         43.1060    30.1200    45.4730 C.2          1 NAD3001   0.0000
    40 O7N         43.8900    31.2330    45.2180 O.2          1 NAD3001   0.0000
    41 N7N         43.5480    29.0860    46.2110 N.am         1 NAD3001   0.0000
    42 C4N         41.3190    31.2890    44.1540 C.ar         1 NAD3001   0.0000
    43 C5N         40.0130    31.3580    43.6600 C.ar         1 NAD3001   0.0000
    44 C6N         39.1780    30.2640    43.7770 C.ar         1 NAD3001   0.0000
    45 H5B1        42.3634    20.7221    45.1273 H            1 NAD3001   0.0000
    46 H5B2        41.0874    21.4509    45.8396 H            1 NAD3001   0.0000
    47 H4B         41.3643    19.9566    47.7159 H            1 NAD3001   0.0000
    48 H3B         43.7088    19.2826    46.5065 H            1 NAD3001   0.0000
    49 H5          42.4317    17.9540    48.6461 H            1 NAD3001   0.0000
    50 H2B         42.8360    17.8100    45.0520 H            1 NAD3001   0.0000
    51 H7          42.5281    15.9425    47.0643 H            1 NAD3001   0.0000
    52 H1B         40.7629    17.1937    46.9597 H            1 NAD3001   0.0000
    53 H8A         41.4681    17.4715    43.2516 H            1 NAD3001   0.0000
    54 H6A1        37.1336    13.3377    42.4712 H            1 NAD3001   0.0000
    55 H6A2        38.4296    14.2563    41.7810 H            1 NAD3001   0.0000
    56 H2A         37.0937    14.4303    46.8763 H            1 NAD3001   0.0000
    57 H5D1        39.6744    25.4405    47.5378 H            1 NAD3001   0.0000
    58 H5D2        39.7047    24.2543    46.4159 H            1 NAD3001   0.0000
    59 H4D         37.7079    25.6709    46.2218 H            1 NAD3001   0.0000
    60 H3D         39.0152    24.7483    44.0937 H            1 NAD3001   0.0000
    61 H17         36.8118    24.6534    43.9882 H            1 NAD3001   0.0000
    62 H2D         40.1878    26.7171    43.7212 H            1 NAD3001   0.0000
    63 H19         39.0833    26.0193    41.8440 H            1 NAD3001   0.0000
    64 H1D         37.7781    28.2094    44.2998 H            1 NAD3001   0.0000
    65 H2N         41.2129    28.1993    45.3984 H            1 NAD3001   0.0000
    66 H7N1        44.4558    29.1219    46.6289 H            1 NAD3001   0.0000
    67 H7N2        42.9688    28.2814    46.3418 H            1 NAD3001   0.0000
    68 H4N         41.9428    32.0616    44.0356 H            1 NAD3001   0.0000
    69 H5N         39.6848    32.1958    43.2238 H            1 NAD3001   0.0000
    70 H6N         38.2533    30.2994    43.3978 H            1 NAD3001   0.0000
@<TRIPOS>BOND
     1    1    2      ar
     2    1    3      ar
     3    1    4       1
     4    1   23       1
     5    4    5       1
     6    5    6       1
     7    6    7       1
     8    6    8       1
     9    7   12       1
    10    8    9       1
    11    8   10       1
    12   10   11       1
    13   10   12       1
    14   12   13       1
    15   13   14       1
    16   13   22       1
    17   14   15       2
    18   15   16       1
    19   16   17      ar
    20   16   22      ar
    21   17   18       1
    22   17   19      ar
    23   19   20      ar
    24   20   21      ar
    25   21   22      ar
    26   23   24       1
    27   24   25      ar
    28   24   26      ar
    29   24   27       1
    30   27   28       1
    31   28   29       1
    32   29   30       1
    33   29   31       1
    34   30   35       1
    35   31   32       1
    36   31   33       1
    37   33   34       1
    38   33   35       1
    39   35   36       1
    40   36   37      ar
    41   36   44      ar
    42   37   38      ar
    43   38   39       1
    44   38   42      ar
    45   39   40       2
    46   39   41      am
    47   42   43      ar
    48   43   44      ar
    49   44   70       1
    50    5   45       1
    51    5   46       1
    52    6   47       1
    53    8   48       1
    54    9   49       1
    55   10   50       1
    56   11   51       1
    57   12   52       1
    58   14   53       1
    59   18   54       1
    60   18   55       1
    61   20   56       1
    62   43   69       1
    63   28   57       1
    64   28   58       1
    65   29   59       1
    66   31   60       1
    67   32   61       1
    68   33   62       1
    69   34   63       1
    70   35   64       1
    71   37   65       1
    72   41   66       1
    73   41   67       1
    74   42   68       1
@<TRIPOS>SUBSTRUCTURE
     1 NAD3001     1 GROUP             4 A     NAD     0 **** NAD A3001
