@<TRIPOS>MOLECULE
1kuy_COT_1_ligand
  105   109     1     0     0
SMALL
NO_CHARGES


@<TRIPOS>ATOM
     1 C1T         10.0000    20.7790    35.2140 C.3          1 COT901   0.0000
     2 CGT          9.9940    21.4780    36.5660 C.2          1 COT901   0.0000
     3 C11         10.4960    22.7920    36.8640 C.ar         1 COT901   0.0000
     4 C12         10.2790    23.0190    38.2760 C.ar         1 COT901   0.0000
     5 C13         11.1270    23.8280    36.0920 C.ar         1 COT901   0.0000
     6 C14          9.5030    20.9790    37.7460 C.2          1 COT901   0.0000
     7 N11          9.6720    21.8960    38.7730 N.pl3        1 COT901   0.0000
     8 C15         10.6590    24.2290    38.9280 C.ar         1 COT901   0.0000
     9 C16         11.5080    25.0400    36.7430 C.ar         1 COT901   0.0000
    10 C17         11.2720    25.2240    38.1470 C.ar         1 COT901   0.0000
    11 S           13.3030    21.5300    31.3960 S.3          1 COT901   0.0000
    12 C6T         13.3630    19.8000    31.9200 C.3          1 COT901   0.0000
    13 C4T         13.0140    19.6610    33.3830 C.2          1 COT901   0.0000
    14 O5T         13.9100    19.3560    34.2040 O.2          1 COT901   0.0000
    15 N3T         11.7350    19.8990    33.7040 N.am         1 COT901   0.0000
    16 C2T         11.2160    19.8300    35.0820 C.3          1 COT901   0.0000
    17 O11         22.4690    22.8680    29.1530 O.3          1 COT901   0.0000
    18 PB          23.5330    23.8200    28.5640 P.3          1 COT901   0.0000
    19 O12         24.8810    23.1070    28.6410 O.co2        1 COT901   0.0000
    20 O13         23.5830    25.1260    29.3410 O.co2        1 COT901  -1.0000
    21 O14         23.2000    24.1590    27.0970 O.3          1 COT901   0.0000
    22 O3B         21.0190    27.6200    22.6950 O.3          1 COT901   0.0000
    23 PA          23.9170    23.9050    25.7620 P.3          1 COT901   0.0000
    24 O15         25.3340    24.4180    25.9210 O.co2        1 COT901   0.0000
    25 O16         23.9400    22.4070    25.4030 O.co2        1 COT901  -1.0000
    26 O5B         23.2240    24.6930    24.6440 O.3          1 COT901   0.0000
    27 C5B         22.5980    25.9160    24.9430 C.3          1 COT901   0.0000
    28 C4B         21.1340    26.0000    24.5900 C.3          1 COT901   0.0000
    29 C3B         20.8050    27.3960    24.1160 C.3          1 COT901   0.0000
    30 O2B         18.5370    27.1560    23.4720 O.3          1 COT901   0.0000
    31 O4B         20.3240    25.7350    25.7620 O.3          1 COT901   0.0000
    32 PC          22.0780    28.6550    22.2290 P.3          1 COT901   0.0000
    33 O17         22.2210    29.8260    23.2350 O.co2        1 COT901   0.0000
    34 O18         23.4520    27.9340    22.0620 O.co2        1 COT901  -1.0000
    35 O19         21.6360    29.1860    20.8440 O.co2        1 COT901  -1.0000
    36 C2B         19.3170    27.5050    24.4980 C.3          1 COT901   0.0000
    37 C1B         19.1500    26.6200    25.7600 C.3          1 COT901   0.0000
    38 N9A         19.0560    27.5040    26.9940 N.pl3        1 COT901   0.0000
    39 C8A         19.9230    27.6030    28.0920 C.2          1 COT901   0.0000
    40 N7A         19.5460    28.4820    29.0180 N.2          1 COT901   0.0000
    41 C5A         18.3660    29.0030    28.5200 C.ar         1 COT901   0.0000
    42 C6A         17.3980    30.0210    29.0140 C.ar         1 COT901   0.0000
    43 N6A         17.5440    30.6730    30.1760 N.pl3        1 COT901   0.0000
    44 N1A         16.2620    30.3270    28.2350 N.ar         1 COT901   0.0000
    45 C2A         16.0540    29.6930    27.0370 C.ar         1 COT901   0.0000
    46 N3A         16.8720    28.7370    26.4780 N.ar         1 COT901   0.0000
    47 C4A         18.0390    28.4210    27.2740 C.ar         1 COT901   0.0000
    48 N3P         16.6000    22.9030    33.2090 N.am         1 COT901   0.0000
    49 C4P         16.8340    24.2500    33.6520 C.2          1 COT901   0.0000
    50 O5P         16.1980    25.2410    33.2590 O.2          1 COT901   0.0000
    51 C6P         17.9080    24.3570    34.7340 C.3          1 COT901   0.0000
    52 C7P         19.0370    25.3800    34.4570 C.3          1 COT901   0.0000
    53 N8P         19.5830    25.2460    33.1250 N.am         1 COT901   0.0000
    54 C9P         20.4320    24.1600    32.7350 C.2          1 COT901   0.0000
    55 OAP         20.7490    23.2720    33.5350 O.2          1 COT901   0.0000
    56 CBP         20.9610    24.0730    31.2540 C.3          1 COT901   0.0000
    57 OCP         20.9660    25.4470    30.7670 O.3          1 COT901   0.0000
    58 CDP         20.1710    23.1080    30.2740 C.3          1 COT901   0.0000
    59 CGP         21.0300    23.0490    28.9640 C.3          1 COT901   0.0000
    60 CEP         20.0170    21.6650    30.8430 C.3          1 COT901   0.0000
    61 CFP         18.7640    23.6490    29.9530 C.3          1 COT901   0.0000
    62 C2P         15.5600    22.5320    32.2620 C.2          1 COT901   0.0000
    63 C1P         14.3060    22.5780    32.4710 C.2          1 COT901   0.0000
    64 H1T1        10.0434    21.4679    34.4905 H            1 COT901   0.0000
    65 H1T2         9.1587    20.2470    35.1177 H            1 COT901   0.0000
    66 H3          11.2963    23.7015    35.1146 H            1 COT901   0.0000
    67 H4           9.0814    20.0783    37.8512 H            1 COT901   0.0000
    68 H5           9.3950    21.7592    39.7241 H            1 COT901   0.0000
    69 H6          10.4953    24.3647    39.9051 H            1 COT901   0.0000
    70 H7          11.9441    25.7689    36.2152 H            1 COT901   0.0000
    71 H8          11.5506    26.0812    38.5801 H            1 COT901   0.0000
    72 H6T1        14.2858    19.4452    31.7695 H            1 COT901   0.0000
    73 H6T2        12.7101    19.2718    31.3771 H            1 COT901   0.0000
    74 H3T         11.0988    20.1360    32.9698 H            1 COT901   0.0000
    75 H2T1        10.9331    18.8929    35.2867 H            1 COT901   0.0000
    76 H2T2        11.9304    20.1101    35.7232 H            1 COT901   0.0000
    77 H5B1        23.0772    26.6376    24.4433 H            1 COT901   0.0000
    78 H5B2        22.6874    26.0755    25.9261 H            1 COT901   0.0000
    79 H4B         20.9192    25.3380    23.8719 H            1 COT901   0.0000
    80 H3B         21.3346    28.0610    24.6425 H            1 COT901   0.0000
    81 H2B         18.9996    27.3734    22.6125 H            1 COT901   0.0000
    82 H19         19.1180    28.4538    24.7435 H            1 COT901   0.0000
    83 H1B         18.3178    26.0719    25.6767 H            1 COT901   0.0000
    84 H8A         20.7571    27.0573    28.1728 H            1 COT901   0.0000
    85 H6A1        16.8627    31.3478    30.4597 H            1 COT901   0.0000
    86 H6A2        18.3342    30.4846    30.7592 H            1 COT901   0.0000
    87 H2A         15.2347    29.9479    26.5233 H            1 COT901   0.0000
    88 H3P         17.1860    22.1789    33.5728 H            1 COT901   0.0000
    89 H6P1        18.3285    23.4560    34.8403 H            1 COT901   0.0000
    90 H6P2        17.4590    24.6182    35.5885 H            1 COT901   0.0000
    91 H7P1        19.7707    25.2372    35.1213 H            1 COT901   0.0000
    92 H7P2        18.6674    26.3033    34.5618 H            1 COT901   0.0000
    93 H8P         19.3577    25.9434    32.4447 H            1 COT901   0.0000
    94 HBP         21.9101    23.7598    31.2886 H            1 COT901   0.0000
    95 HCP         21.6927    25.5577    30.0890 H            1 COT901   0.0000
    96 HGP1        20.6949    22.2857    28.4117 H            1 COT901   0.0000
    97 HGP2        20.8913    23.9059    28.4675 H            1 COT901   0.0000
    98 HEP1        19.5139    21.1006    30.1886 H            1 COT901   0.0000
    99 HEP2        20.9223    21.2693    30.9977 H            1 COT901   0.0000
   100 HEP3        19.5160    21.6994    31.7078 H            1 COT901   0.0000
   101 HFP1        18.2969    23.0169    29.3348 H            1 COT901   0.0000
   102 HFP2        18.2392    23.7360    30.7997 H            1 COT901   0.0000
   103 HFP3        18.8431    24.5451    29.5162 H            1 COT901   0.0000
   104 H2P         15.8585    22.2110    31.3632 H            1 COT901   0.0000
   105 H1P         13.9035    23.1549    33.1818 H            1 COT901   0.0000
@<TRIPOS>BOND
     1    1    2       1
     2    1   16       1
     3    2    3       1
     4    2    6       2
     5    3    4      ar
     6    3    5      ar
     7    4    7       1
     8    4    8      ar
     9    5    9      ar
    10    6    7       1
    11    8   10      ar
    12    9   10      ar
    13   11   12       1
    14   11   63       1
    15   12   13       1
    16   13   14       2
    17   13   15      am
    18   15   16       1
    19   17   18       1
    20   17   59       1
    21   18   19      ar
    22   18   20      ar
    23   18   21       1
    24   21   23       1
    25   22   29       1
    26   22   32       1
    27   23   24      ar
    28   23   25      ar
    29   23   26       1
    30   26   27       1
    31   27   28       1
    32   28   29       1
    33   28   31       1
    34   29   36       1
    35   30   36       1
    36   31   37       1
    37   32   33      ar
    38   32   34      ar
    39   32   35      ar
    40   36   37       1
    41   37   38       1
    42   38   39       1
    43   38   47       1
    44   39   40       2
    45   40   41       1
    46   41   42      ar
    47   41   47      ar
    48   42   43       1
    49   42   44      ar
    50   44   45      ar
    51   45   46      ar
    52   46   47      ar
    53   48   49      am
    54   48   62       1
    55   49   50       2
    56   49   51       1
    57   51   52       1
    58   52   53       1
    59   53   54      am
    60   54   55       2
    61   54   56       1
    62   56   57       1
    63   56   58       1
    64   58   59       1
    65   58   60       1
    66   58   61       1
    67   62   63       2
    68    1   64       1
    69    1   65       1
    70    5   66       1
    71    6   67       1
    72    7   68       1
    73    8   69       1
    74    9   70       1
    75   10   71       1
    76   12   72       1
    77   12   73       1
    78   15   74       1
    79   16   75       1
    80   16   76       1
    81   63  105       1
    82   62  104       1
    83   27   77       1
    84   27   78       1
    85   28   79       1
    86   29   80       1
    87   30   81       1
    88   61  103       1
    89   61  102       1
    90   36   82       1
    91   37   83       1
    92   39   84       1
    93   43   85       1
    94   43   86       1
    95   45   87       1
    96   48   88       1
    97   51   89       1
    98   51   90       1
    99   52   91       1
   100   52   92       1
   101   53   93       1
   102   56   94       1
   103   57   95       1
   104   59   96       1
   105   59   97       1
   106   60   98       1
   107   60   99       1
   108   60  100       1
   109   61  101       1
@<TRIPOS>SUBSTRUCTURE
     1 COT901      1 GROUP             4 A     COT     0 **** COT A 901
