@<TRIPOS>MOLECULE
1erb_ETR_1_ligand
   57    57     1     0     0
SMALL
NO_CHARGES


@<TRIPOS>ATOM
     1 C1          30.0350    21.4960    45.3510 C.3          1 ETR184   0.0000
     2 C2          29.5360    21.5490    43.9000 C.3          1 ETR184   0.0000
     3 C3          30.0000    20.3840    43.0340 C.3          1 ETR184   0.0000
     4 C4          31.2680    19.7840    43.6060 C.3          1 ETR184   0.0000
     5 C5          30.9700    19.3160    45.0280 C.2          1 ETR184   0.0000
     6 C6          30.2620    20.0880    45.9100 C.2          1 ETR184   0.0000
     7 C7          30.3430    19.5080    47.2550 C.2          1 ETR184   0.0000
     8 C8          31.6130    19.5150    47.7410 C.2          1 ETR184   0.0000
     9 C9          31.6720    19.1860    49.1630 C.2          1 ETR184   0.0000
    10 C10         32.9770    19.1300    49.5110 C.2          1 ETR184   0.0000
    11 C11         33.0790    18.9470    50.9230 C.2          1 ETR184   0.0000
    12 C12         34.4980    18.8310    51.1830 C.2          1 ETR184   0.0000
    13 C13         35.0440    18.6470    52.4650 C.2          1 ETR184   0.0000
    14 C14         36.1710    18.4870    52.6170 C.2          1 ETR184   0.0000
    15 C15         36.5720    18.2850    53.9970 C.2          1 ETR184   0.0000
    16 O           35.6070    18.3500    54.9850 O.2          1 ETR184   0.0000
    17 N           37.6270    17.9910    54.1300 N.am         1 ETR184   0.0000
    18 C16         28.5990    21.6060    45.8100 C.3          1 ETR184   0.0000
    19 C17         30.7830    22.7870    45.6750 C.3          1 ETR184   0.0000
    20 C18         31.5600    17.9330    45.2190 C.3          1 ETR184   0.0000
    21 C19         30.3050    18.9370    49.7900 C.3          1 ETR184   0.0000
    22 C20         34.0830    18.7640    53.5240 C.3          1 ETR184   0.0000
    23 C21         37.9900    16.7390    55.0200 C.3          1 ETR184   0.0000
    24 C22         38.3520    17.4810    56.2650 C.3          1 ETR184   0.0000
    25 H1          29.8658    22.3975    43.4862 H            1 ETR184   0.0000
    26 H2          28.5361    21.5510    43.9126 H            1 ETR184   0.0000
    27 H3          30.1783    20.7118    42.1062 H            1 ETR184   0.0000
    28 H4          29.2852    19.6851    43.0090 H            1 ETR184   0.0000
    29 H5          31.9927    20.4729    43.6205 H            1 ETR184   0.0000
    30 H6          31.5578    19.0071    43.0470 H            1 ETR184   0.0000
    31 H7          29.5556    19.1491    47.7563 H            1 ETR184   0.0000
    32 H8          32.4183    19.7226    47.1857 H            1 ETR184   0.0000
    33 H9          33.7486    19.2049    48.8794 H            1 ETR184   0.0000
    34 H10         32.3328    18.9076    51.5875 H            1 ETR184   0.0000
    35 H11         35.1257    18.8848    50.4064 H            1 ETR184   0.0000
    36 H12         36.8236    18.4869    51.8593 H            1 ETR184   0.0000
    37 H13         38.3528    18.5173    53.6870 H            1 ETR184   0.0000
    38 H14         28.5671    21.5994    46.8095 H            1 ETR184   0.0000
    39 H15         28.2047    22.4596    45.4696 H            1 ETR184   0.0000
    40 H16         28.0752    20.8318    45.4546 H            1 ETR184   0.0000
    41 H17         31.1092    22.7551    46.6198 H            1 ETR184   0.0000
    42 H18         31.5625    22.8848    45.0563 H            1 ETR184   0.0000
    43 H19         30.1672    23.5666    45.5611 H            1 ETR184   0.0000
    44 H20         31.3709    17.6154    46.1482 H            1 ETR184   0.0000
    45 H21         31.1496    17.3017    44.5609 H            1 ETR184   0.0000
    46 H22         32.5487    17.9695    45.0739 H            1 ETR184   0.0000
    47 H23         30.4177    18.7182    50.7592 H            1 ETR184   0.0000
    48 H24         29.7411    19.7576    49.6969 H            1 ETR184   0.0000
    49 H25         29.8594    18.1719    49.3251 H            1 ETR184   0.0000
    50 H26         34.5373    18.6226    54.4035 H            1 ETR184   0.0000
    51 H27         33.6735    19.6761    53.5032 H            1 ETR184   0.0000
    52 H28         33.3684    18.0749    53.4033 H            1 ETR184   0.0000
    53 H29         38.7598    16.2192    54.6495 H            1 ETR184   0.0000
    54 H30         37.2094    16.1286    55.1543 H            1 ETR184   0.0000
    55 H31         38.6212    16.8300    56.9747 H            1 ETR184   0.0000
    56 H32         39.1138    18.1002    56.0744 H            1 ETR184   0.0000
    57 H33         37.5634    18.0095    56.5793 H            1 ETR184   0.0000
@<TRIPOS>BOND
     1    1    2       1
     2    1    6       1
     3    1   18       1
     4    1   19       1
     5    2    3       1
     6    3    4       1
     7    4    5       1
     8    5    6       2
     9    5   20       1
    10    6    7       1
    11    7    8       2
    12    8    9       1
    13    9   10       2
    14    9   21       1
    15   10   11       1
    16   11   12       2
    17   12   13       1
    18   13   14       2
    19   13   22       1
    20   14   15       1
    21   15   16       2
    22   15   17      am
    23   17   23       1
    24   23   24       1
    25    2   25       1
    26    2   26       1
    27    3   27       1
    28    3   28       1
    29    4   29       1
    30    4   30       1
    31    7   31       1
    32    8   32       1
    33   10   33       1
    34   11   34       1
    35   12   35       1
    36   14   36       1
    37   17   37       1
    38   18   38       1
    39   18   39       1
    40   18   40       1
    41   19   41       1
    42   19   42       1
    43   19   43       1
    44   20   44       1
    45   20   45       1
    46   20   46       1
    47   21   47       1
    48   21   48       1
    49   21   49       1
    50   22   50       1
    51   22   51       1
    52   22   52       1
    53   23   53       1
    54   23   54       1
    55   24   55       1
    56   24   56       1
    57   24   57       1
@<TRIPOS>SUBSTRUCTURE
     1 ETR184      1 GROUP             4 A     ETR     0 **** ETR A 184
