@<TRIPOS>MOLECULE
1c6z_ROC_1_ligand
  100   104     1     0     0
SMALL
NO_CHARGES


@<TRIPOS>ATOM
     1 C           35.8390    24.1210    25.4780 C.2          1 ROC505   0.0000
     2 O           36.4700    23.0730    25.3770 O.2          1 ROC505   0.0000
     3 N1          34.9440    25.9870    26.6900 N.ar         1 ROC505   0.0000
     4 C2          35.4210    24.7400    26.7190 C.ar         1 ROC505   0.0000
     5 C3          35.5160    24.0160    27.8980 C.ar         1 ROC505   0.0000
     6 C4          34.9600    24.6010    29.0270 C.ar         1 ROC505   0.0000
     7 C5          33.7580    26.4320    30.0780 C.ar         1 ROC505   0.0000
     8 C6          33.1760    27.6990    29.9830 C.ar         1 ROC505   0.0000
     9 C7          33.0860    28.3600    28.7750 C.ar         1 ROC505   0.0000
    10 C8          33.6820    27.7960    27.6520 C.ar         1 ROC505   0.0000
    11 C4A         34.3460    25.8480    28.9570 C.ar         1 ROC505   0.0000
    12 C8A         34.3240    26.5490    27.7450 C.ar         1 ROC505   0.0000
    13 N           35.4540    24.8210    24.4230 N.am         1 ROC505   0.0000
    14 CA          35.9090    24.3080    23.1320 C.3          1 ROC505   0.0000
    15 C1          36.6660    25.3360    22.3550 C.2          1 ROC505   0.0000
    16 O1          36.0870    26.1200    21.6010 O.2          1 ROC505   0.0000
    17 CB          34.7750    23.8130    22.2570 C.3          1 ROC505   0.0000
    18 CG          34.1720    22.5210    22.7510 C.2          1 ROC505   0.0000
    19 OD1         34.6200    21.4340    22.3910 O.2          1 ROC505   0.0000
    20 ND2         33.1090    22.5410    23.5920 N.am         1 ROC505   0.0000
    21 C9          39.7040    25.3570    20.8500 C.3          1 ROC505   0.0000
    22 O2          40.3020    24.2940    21.2700 O.3          1 ROC505   0.0000
    23 CA1         38.9420    26.1750    21.9200 C.3          1 ROC505   0.0000
    24 N2          37.9980    25.2720    22.5840 N.am         1 ROC505   0.0000
    25 CB1         39.9180    26.7020    22.9820 C.3          1 ROC505   0.0000
    26 CG1         39.1910    27.1720    24.2390 C.ar         1 ROC505   0.0000
    27 CD1         38.6030    28.4730    24.2960 C.ar         1 ROC505   0.0000
    28 CD2         39.1250    26.2620    25.3430 C.ar         1 ROC505   0.0000
    29 CE1         37.9200    28.8390    25.4840 C.ar         1 ROC505   0.0000
    30 CE2         38.4380    26.6790    26.5110 C.ar         1 ROC505   0.0000
    31 CZ          37.8460    27.9620    26.5780 C.ar         1 ROC505   0.0000
    32 N11         39.7550    27.0450    18.9190 N.4          1 ROC505   1.0000
    33 CM          40.5110    26.2440    19.8860 C.3          1 ROC505   0.0000
    34 C21         40.6720    28.1460    18.5910 C.3          1 ROC505   0.0000
    35 CC          40.8000    29.2010    19.6390 C.2          1 ROC505   0.0000
    36 O3          39.8740    29.4270    20.4100 O.2          1 ROC505   0.0000
    37 C31         40.2620    28.8470    17.2930 C.3          1 ROC505   0.0000
    38 C3A         40.1280    27.8870    16.1160 C.3          1 ROC505   0.0000
    39 C41         39.6540    28.5720    14.8550 C.3          1 ROC505   0.0000
    40 C51         38.2400    29.1470    14.9790 C.3          1 ROC505   0.0000
    41 C61         37.2690    28.0300    15.3520 C.3          1 ROC505   0.0000
    42 C71         37.7330    27.3430    16.6430 C.3          1 ROC505   0.0000
    43 C7A         39.1590    26.7690    16.4860 C.3          1 ROC505   0.0000
    44 C81         39.6330    26.0870    17.7720 C.3          1 ROC505   0.0000
    45 N3          42.0030    29.8230    19.5710 N.am         1 ROC505   0.0000
    46 CD          42.4180    30.8950    20.4640 C.3          1 ROC505   0.0000
    47 C11         43.8200    31.3210    20.0130 C.3          1 ROC505   0.0000
    48 C22         41.4750    32.0810    20.3430 C.3          1 ROC505   0.0000
    49 C32         42.4150    30.4130    21.9300 C.3          1 ROC505   0.0000
    50 H1          35.9609    23.1211    27.9327 H            1 ROC505   0.0000
    51 H2          35.0011    24.1200    29.9027 H            1 ROC505   0.0000
    52 H3          33.7527    25.9439    30.9508 H            1 ROC505   0.0000
    53 H4          32.8172    28.1359    30.8079 H            1 ROC505   0.0000
    54 H5          32.5997    29.2312    28.7081 H            1 ROC505   0.0000
    55 H6          33.6537    28.2786    26.7766 H            1 ROC505   0.0000
    56 H7          34.8910    25.6436    24.5033 H            1 ROC505   0.0000
    57 HA          36.5234    23.5383    23.3053 H            1 ROC505   0.0000
    58 HB1         35.1259    23.6680    21.3319 H            1 ROC505   0.0000
    59 HB2         34.0597    24.5115    22.2365 H            1 ROC505   0.0000
    60 HD21        32.7124    21.6825    23.9170 H            1 ROC505   0.0000
    61 HD22        32.7215    23.4143    23.8873 H            1 ROC505   0.0000
    62 H13         38.9721    24.9960    20.2721 H            1 ROC505   0.0000
    63 H14         40.7598    23.8440    20.5032 H            1 ROC505   0.0000
    64 HA1         38.4523    26.9346    21.4919 H            1 ROC505   0.0000
    65 H16         38.3483    24.5889    23.2248 H            1 ROC505   0.0000
    66 HB11        40.4297    27.4705    22.5979 H            1 ROC505   0.0000
    67 HB12        40.5523    25.9698    23.2300 H            1 ROC505   0.0000
    68 HD1         38.6708    29.1047    23.5237 H            1 ROC505   0.0000
    69 HD2         39.5511    25.3588    25.2915 H            1 ROC505   0.0000
    70 HE1         37.4838    29.7369    25.5434 H            1 ROC505   0.0000
    71 HE2         38.3714    26.0608    27.2942 H            1 ROC505   0.0000
    72 HZ          37.3712    28.2465    27.4108 H            1 ROC505   0.0000
    73 HM1         41.1227    25.6460    19.3681 H            1 ROC505   0.0000
    74 HM2         41.0530    26.8753    20.4408 H            1 ROC505   0.0000
    75 H26         41.5794    27.7510    18.4475 H            1 ROC505   0.0000
    76 H27         40.9545    29.5325    17.0682 H            1 ROC505   0.0000
    77 H28         39.3814    29.2981    17.4385 H            1 ROC505   0.0000
    78 H3A         41.0241    27.4811    15.9366 H            1 ROC505   0.0000
    79 H30         39.6626    27.9064    14.1087 H            1 ROC505   0.0000
    80 H31         40.2839    29.3191    14.6426 H            1 ROC505   0.0000
    81 H32         37.9658    29.5495    14.1056 H            1 ROC505   0.0000
    82 H33         38.2273    29.8510    15.6891 H            1 ROC505   0.0000
    83 H34         37.2368    27.3580    14.6121 H            1 ROC505   0.0000
    84 H35         36.3572    28.4163    15.4914 H            1 ROC505   0.0000
    85 H36         37.1030    26.5976    16.8609 H            1 ROC505   0.0000
    86 H37         37.7298    28.0106    17.3876 H            1 ROC505   0.0000
    87 H7A         39.1529    26.0934    15.7487 H            1 ROC505   0.0000
    88 H39         38.9760    25.3744    18.0179 H            1 ROC505   0.0000
    89 H40         40.5273    25.6723    17.6041 H            1 ROC505   0.0000
    90 H41         42.6448    29.5269    18.8636 H            1 ROC505   0.0000
    91 H42         44.1490    32.0601    20.6008 H            1 ROC505   0.0000
    92 H43         44.4425    30.5411    20.0782 H            1 ROC505   0.0000
    93 H44         43.7830    31.6397    19.0659 H            1 ROC505   0.0000
    94 H45         41.7728    32.8081    20.9616 H            1 ROC505   0.0000
    95 H46         41.4840    32.4194    19.4020 H            1 ROC505   0.0000
    96 H47         40.5478    31.7958    20.5858 H            1 ROC505   0.0000
    97 H48         42.7022    31.1616    22.5276 H            1 ROC505   0.0000
    98 H49         41.4929    30.1199    22.1826 H            1 ROC505   0.0000
    99 H50         43.0479    29.6452    22.0297 H            1 ROC505   0.0000
   100 H51         38.8718    27.3572    19.2690 H            1 ROC505   0.0000
@<TRIPOS>BOND
     1    1    2       2
     2    1    4       1
     3    1   13      am
     4    3    4      ar
     5    3   12      ar
     6    4    5      ar
     7    5    6      ar
     8    6   11      ar
     9    7    8      ar
    10    7   11      ar
    11    8    9      ar
    12    9   10      ar
    13   10   12      ar
    14   11   12      ar
    15   13   14       1
    16   14   15       1
    17   14   17       1
    18   15   16       2
    19   15   24      am
    20   17   18       1
    21   18   19       2
    22   18   20      am
    23   21   22       1
    24   21   23       1
    25   21   33       1
    26   23   24       1
    27   23   25       1
    28   25   26       1
    29   26   27      ar
    30   26   28      ar
    31   27   29      ar
    32   28   30      ar
    33   29   31      ar
    34   30   31      ar
    35   32   33       1
    36   32   34       1
    37   32   44       1
    38   34   35       1
    39   34   37       1
    40   35   36       2
    41   35   45      am
    42   37   38       1
    43   38   39       1
    44   38   43       1
    45   39   40       1
    46   40   41       1
    47   41   42       1
    48   42   43       1
    49   43   44       1
    50   45   46       1
    51   46   47       1
    52   46   48       1
    53   46   49       1
    54    5   50       1
    55    6   51       1
    56    7   52       1
    57    8   53       1
    58    9   54       1
    59   10   55       1
    60   13   56       1
    61   14   57       1
    62   17   58       1
    63   17   59       1
    64   20   60       1
    65   20   61       1
    66   21   62       1
    67   22   63       1
    68   23   64       1
    69   24   65       1
    70   25   66       1
    71   25   67       1
    72   27   68       1
    73   28   69       1
    74   29   70       1
    75   30   71       1
    76   31   72       1
    77   33   73       1
    78   33   74       1
    79   34   75       1
    80   37   76       1
    81   37   77       1
    82   38   78       1
    83   39   79       1
    84   39   80       1
    85   40   81       1
    86   40   82       1
    87   41   83       1
    88   41   84       1
    89   42   85       1
    90   42   86       1
    91   43   87       1
    92   44   88       1
    93   44   89       1
    94   45   90       1
    95   47   91       1
    96   47   92       1
    97   47   93       1
    98   48   94       1
    99   48   95       1
   100   48   96       1
   101   49   97       1
   102   49   98       1
   103   49   99       1
   104   32  100       1
@<TRIPOS>SUBSTRUCTURE
     1 ROC505      1 GROUP             4 B     ROC     0 **** ROC B 505
