@<TRIPOS>MOLECULE
1tuv_VK3_1_ligand
   21    22     1     0     0
SMALL
NO_CHARGES


@<TRIPOS>ATOM
     1 C1K        -10.8610     4.4610   -18.2370 C.2          1 VK34558   0.0000
     2 O1K        -11.5380     5.0030   -17.3660 O.2          1 VK34558   0.0000
     3 C2K        -11.4950     3.5410   -19.0580 C.2          1 VK34558   0.0000
     4 C3K        -10.8290     2.8930   -20.0780 C.2          1 VK34558   0.0000
     5 C4K         -9.3960     3.1200   -20.3380 C.2          1 VK34558   0.0000
     6 O4K         -8.8160     2.4840   -21.2430 O.2          1 VK34558   0.0000
     7 C5K         -8.6680     4.0570   -19.4690 C.ar         1 VK34558   0.0000
     8 C6K         -7.3160     4.3130   -19.6030 C.ar         1 VK34558   0.0000
     9 C7K         -6.7110     5.2140   -18.7200 C.ar         1 VK34558   0.0000
    10 C8K         -7.4250     5.8100   -17.7300 C.ar         1 VK34558   0.0000
    11 C9K         -8.7300     5.6110   -17.5550 C.ar         1 VK34558   0.0000
    12 C10         -9.4190     4.7540   -18.3950 C.ar         1 VK34558   0.0000
    13 C11        -11.5600     1.9150   -20.9470 C.3          1 VK34558   0.0000
    14 H2K        -12.4631     3.3413   -18.9065 H            1 VK34558   0.0000
    15 H6K         -6.7806     3.8627   -20.3175 H            1 VK34558   0.0000
    16 H7K         -5.7380     5.4224   -18.8192 H            1 VK34558   0.0000
    17 H8K         -6.9485     6.4268   -17.1035 H            1 VK34558   0.0000
    18 H9K         -9.2124     6.0812   -16.8160 H            1 VK34558   0.0000
    19 H6         -10.9319     1.5412   -21.6295 H            1 VK34558   0.0000
    20 H7         -11.9199     1.1719   -20.3828 H            1 VK34558   0.0000
    21 H8         -12.3159     2.3793   -21.4085 H            1 VK34558   0.0000
@<TRIPOS>BOND
     1    1    2       2
     2    1    3       1
     3    1   12       1
     4    3    4       2
     5    4    5       1
     6    4   13       1
     7    5    6       2
     8    5    7       1
     9    7    8      ar
    10    7   12      ar
    11    8    9      ar
    12    9   10      ar
    13   10   11      ar
    14   11   12      ar
    15    3   14       1
    16    8   15       1
    17    9   16       1
    18   10   17       1
    19   11   18       1
    20   13   19       1
    21   13   20       1
    22   13   21       1
@<TRIPOS>SUBSTRUCTURE
     1 VK34558     1 GROUP             4 A     VK3     0 **** VK3 A4558
