@<TRIPOS>MOLECULE
4dzz_ADP_1_ligand
   39    41     1     0     0
SMALL
NO_CHARGES


@<TRIPOS>ATOM
     1 PB          23.0010    30.5580    23.8410 P.3          1 ADP501   0.0000
     2 O1B         22.2050    31.0840    24.9260 O.co2        1 ADP501   0.0000
     3 O2B         22.9460    30.3360    22.4250 O.co2        1 ADP501  -1.0000
     4 O3B         24.4290    30.0890    24.5090 O.co2        1 ADP501  -1.0000
     5 PA          22.0600    27.6680    23.4450 P.3          1 ADP501   0.0000
     6 O1A         21.0310    27.7150    22.3730 O.co2        1 ADP501   0.0000
     7 O2A         23.3820    27.1460    23.0900 O.co2        1 ADP501  -1.0000
     8 O3A         22.2330    29.1710    24.1370 O.3          1 ADP501   0.0000
     9 O5'         21.2910    26.8600    24.5310 O.3          1 ADP501   0.0000
    10 C5'         21.9520    26.5470    25.7770 C.3          1 ADP501   0.0000
    11 C4'         21.7790    25.0820    26.1850 C.3          1 ADP501   0.0000
    12 O4'         20.6050    24.9950    27.0520 O.3          1 ADP501   0.0000
    13 C3'         21.4840    23.9970    25.0950 C.3          1 ADP501   0.0000
    14 O3'         22.6880    23.3250    24.6670 O.3          1 ADP501   0.0000
    15 C2'         20.4800    23.1230    25.7580 C.3          1 ADP501   0.0000
    16 O2'         21.1220    22.0990    26.5530 O.3          1 ADP501   0.0000
    17 C1'         19.6650    23.9840    26.6360 C.3          1 ADP501   0.0000
    18 N9          18.4520    24.6810    26.0520 N.pl3        1 ADP501   0.0000
    19 C8          18.2850    25.9030    25.4170 C.2          1 ADP501   0.0000
    20 N7          17.0650    26.1760    25.0450 N.2          1 ADP501   0.0000
    21 C5          16.3780    25.0470    25.4710 C.ar         1 ADP501   0.0000
    22 C6          15.0020    24.6470    25.3960 C.ar         1 ADP501   0.0000
    23 N6          14.0920    25.4440    24.8260 N.pl3        1 ADP501   0.0000
    24 N1          14.6160    23.4050    25.9330 N.ar         1 ADP501   0.0000
    25 C2          15.5330    22.5750    26.5220 C.ar         1 ADP501   0.0000
    26 N3          16.8830    22.8450    26.6530 N.ar         1 ADP501   0.0000
    27 C4          17.2310    24.1110    26.0950 C.ar         1 ADP501   0.0000
    28 H5'1        21.5698    27.1269    26.4965 H            1 ADP501   0.0000
    29 H5'2        22.9285    26.7385    25.6781 H            1 ADP501   0.0000
    30 H4'         22.5833    24.7991    26.7075 H            1 ADP501   0.0000
    31 H3'         21.0593    24.4379    24.3042 H            1 ADP501   0.0000
    32 H5          22.4598    22.6419    23.9732 H            1 ADP501   0.0000
    33 H2'         19.8958    22.6967    25.0674 H            1 ADP501   0.0000
    34 H7          20.4251    21.5274    26.9862 H            1 ADP501   0.0000
    35 H1'         19.3816    23.4556    27.4363 H            1 ADP501   0.0000
    36 H9          19.0466    26.5306    25.2557 H            1 ADP501   0.0000
    37 H10         13.1354    25.1566    24.7784 H            1 ADP501   0.0000
    38 H11         14.3681    26.3274    24.4473 H            1 ADP501   0.0000
    39 H12         15.1999    21.7052    26.8860 H            1 ADP501   0.0000
@<TRIPOS>BOND
     1    1    2      ar
     2    1    3      ar
     3    1    4      ar
     4    1    8       1
     5    5    6      ar
     6    5    7      ar
     7    5    8       1
     8    5    9       1
     9    9   10       1
    10   10   11       1
    11   11   12       1
    12   11   13       1
    13   12   17       1
    14   13   14       1
    15   13   15       1
    16   15   16       1
    17   15   17       1
    18   17   18       1
    19   18   19       1
    20   18   27       1
    21   19   20       2
    22   20   21       1
    23   21   22      ar
    24   21   27      ar
    25   22   23       1
    26   22   24      ar
    27   24   25      ar
    28   25   26      ar
    29   26   27      ar
    30   25   39       1
    31   23   38       1
    32   23   37       1
    33   10   28       1
    34   10   29       1
    35   11   30       1
    36   13   31       1
    37   14   32       1
    38   15   33       1
    39   16   34       1
    40   17   35       1
    41   19   36       1
@<TRIPOS>SUBSTRUCTURE
     1 ADP501      1 GROUP             4 A     ADP     0 **** ADP A 501
