@<TRIPOS>MOLECULE
5imp_JF1_4_ligand
   41    42     1     0     0
SMALL
NO_CHARGES


@<TRIPOS>ATOM
     1 CAJ        -32.7540    90.2890     5.3680 C.3          1 JF1405   0.0000
     2 CAO        -31.6480    91.0880     4.6870 C.3          1 JF1405   0.0000
     3 CAD        -31.0250    90.2530     3.5740 C.3          1 JF1405   0.0000
     4 CAM        -30.5700    91.4520     5.7020 C.3          1 JF1405   0.0000
     5 CAC        -29.9560    90.2010     6.3200 C.3          1 JF1405   0.0000
     6 CAF        -29.4850    92.3410     5.0990 C.3          1 JF1405   0.0000
     7 CAE        -30.0720    93.5320     4.3540 C.3          1 JF1405   0.0000
     8 CAH        -31.1330    93.0620     3.3660 C.3          1 JF1405   0.0000
     9 NAN        -32.1890    92.3400     4.1010 N.4          1 JF1405   1.0000
    10 CAI        -33.3130    92.0720     3.1830 C.3          1 JF1405   0.0000
    11 CAG        -34.4320    91.3260     3.8930 C.3          1 JF1405   0.0000
    12 CAL        -33.8980    89.9980     4.4020 C.3          1 JF1405   0.0000
    13 CAK        -34.9930    89.2240     5.0800 C.2          1 JF1405   0.0000
    14 CAB        -34.9860    89.0550     6.3880 C.2          1 JF1405   0.0000
    15 CAA        -36.1070    88.6370     4.2660 C.3          1 JF1405   0.0000
    16 HAJ1       -33.1065    90.8143     6.1425 H            1 JF1405   0.0000
    17 HAJ2       -32.3762    89.4234     5.6966 H            1 JF1405   0.0000
    18 HAD1       -30.3001    90.7787     3.1288 H            1 JF1405   0.0000
    19 HAD2       -30.6396    89.4155     3.9614 H            1 JF1405   0.0000
    20 HAD3       -31.7267    90.0171     2.9017 H            1 JF1405   0.0000
    21 HAM        -31.0093    91.9679     6.4374 H            1 JF1405   0.0000
    22 HAC1       -29.2536    90.4659     6.9806 H            1 JF1405   0.0000
    23 HAC2       -30.6683    89.6744     6.7840 H            1 JF1405   0.0000
    24 HAC3       -29.5433    89.6420     5.6008 H            1 JF1405   0.0000
    25 HAF1       -28.9402    91.7974     4.4605 H            1 JF1405   0.0000
    26 HAF2       -28.8979    92.6781     5.8350 H            1 JF1405   0.0000
    27 HAE1       -29.3431    94.0030     3.8571 H            1 JF1405   0.0000
    28 HAE2       -30.4877    94.1608     5.0112 H            1 JF1405   0.0000
    29 HAH1       -30.7165    92.4517     2.6922 H            1 JF1405   0.0000
    30 HAH2       -31.5300    93.8524     2.8994 H            1 JF1405   0.0000
    31 HAI1       -32.9851    91.5180     2.4178 H            1 JF1405   0.0000
    32 HAI2       -33.6673    92.9410     2.8377 H            1 JF1405   0.0000
    33 HAG1       -35.1835    91.1621     3.2540 H            1 JF1405   0.0000
    34 HAG2       -34.7624    91.8716     4.6632 H            1 JF1405   0.0000
    35 HAL        -33.5492    89.4664     3.6301 H            1 JF1405   0.0000
    36 HAB1       -35.7196    88.5382     6.8293 H            1 JF1405   0.0000
    37 HAB2       -34.2471    89.4437     6.9384 H            1 JF1405   0.0000
    38 HAA1       -36.7446    88.1585     4.8697 H            1 JF1405   0.0000
    39 HAA2       -36.5893    89.3687     3.7844 H            1 JF1405   0.0000
    40 HAA3       -35.7300    87.9923     3.6010 H            1 JF1405   0.0000
    41 HAN        -32.5165    92.9240     4.8438 H            1 JF1405   0.0000
@<TRIPOS>BOND
     1    1    2       1
     2    1   12       1
     3    2    3       1
     4    2    4       1
     5    2    9       1
     6    4    5       1
     7    4    6       1
     8    6    7       1
     9    7    8       1
    10    8    9       1
    11    9   10       1
    12   10   11       1
    13   11   12       1
    14   12   13       1
    15   13   14       2
    16   13   15       1
    17    1   16       1
    18    1   17       1
    19    3   18       1
    20    3   19       1
    21    3   20       1
    22    4   21       1
    23    5   22       1
    24    5   23       1
    25    5   24       1
    26    6   25       1
    27    6   26       1
    28    7   27       1
    29    7   28       1
    30    8   29       1
    31    8   30       1
    32   10   31       1
    33   10   32       1
    34   11   33       1
    35   11   34       1
    36   12   35       1
    37   14   36       1
    38   14   37       1
    39   15   38       1
    40   15   39       1
    41   15   40       1
    42    9   41       1
@<TRIPOS>SUBSTRUCTURE
     1 JF1405      1 GROUP             4 D     JF1     0 **** JF1 D 405
