@<TRIPOS>MOLECULE
3bqr_4RB_1_ligand
   41    43     1     0     0
SMALL
NO_CHARGES


@<TRIPOS>ATOM
     1 C1G          3.8150    45.4150    33.1080 C.ar         1 4RB401   0.0000
     2 C1E          4.9840    46.1230    32.9030 C.ar         1 4RB401   0.0000
     3 C1R          5.8840    46.3400    33.9540 C.ar         1 4RB401   0.0000
     4 C1Q          7.1930    47.1070    33.6660 C.2          1 4RB401   0.0000
     5 O1D          8.0400    47.1610    34.5930 O.co2        1 4RB401   0.0000
     6 O1B          7.3420    47.5480    32.5140 O.co2        1 4RB401  -1.0000
     7 C1F          5.5950    45.7910    35.2010 C.ar         1 4RB401   0.0000
     8 C1H          4.4140    45.0830    35.4050 C.ar         1 4RB401   0.0000
     9 C1S          3.4950    44.8760    34.3430 C.ar         1 4RB401   0.0000
    10 C1U          2.2560    44.1740    34.4620 C.2          1 4RB401   0.0000
    11 C1K          1.1400    44.2640    33.7210 C.2          1 4RB401   0.0000
    12 N1N          0.2000    43.4020    34.1840 N.2          1 4RB401   0.0000
    13 C1V          0.7350    42.7580    35.1880 C.2          1 4RB401   0.0000
    14 C1J          0.2190    41.7760    36.0030 C.2          1 4RB401   0.0000
    15 C1I          1.0200    41.2840    37.0050 C.2          1 4RB401   0.0000
    16 N1X          2.0270    43.2160    35.4100 N.pl3        1 4RB401   0.0000
    17 N1O          2.7640    42.7330    36.3180 N.2          1 4RB401   0.0000
    18 C1T          2.3120    41.7690    37.1260 C.2          1 4RB401   0.0000
    19 N1P          3.0460    41.2310    38.0870 N.pl3        1 4RB401   0.0000
    20 C1W          4.4730    41.3200    38.1940 C.3          1 4RB401   0.0000
    21 C1L          4.6760    42.6580    38.9100 C.3          1 4RB401   0.0000
    22 C1A          5.9710    42.7330    39.6790 C.3          1 4RB401   0.0000
    23 C1M          5.1510    41.2120    36.8110 C.3          1 4RB401   0.0000
    24 O1C          5.1020    39.8570    36.2760 O.3          1 4RB401   0.0000
    25 H1G          3.1828    45.2884    32.3436 H            1 4RB401   0.0000
    26 H1E          5.1897    46.4846    31.9936 H            1 4RB401   0.0000
    27 H1F          6.2409    45.9064    35.9556 H            1 4RB401   0.0000
    28 H1H          4.2101    44.7151    36.3122 H            1 4RB401   0.0000
    29 H1K          1.0191    44.8776    32.9407 H            1 4RB401   0.0000
    30 H1J         -0.7102    41.4313    35.8699 H            1 4RB401   0.0000
    31 H1I          0.6765    40.5882    37.6357 H            1 4RB401   0.0000
    32 H1P          2.5646    40.7192    38.7986 H            1 4RB401   0.0000
    33 H1W          4.8045    40.5808    38.7803 H            1 4RB401   0.0000
    34 H1L1         3.9190    42.7939    39.5492 H            1 4RB401   0.0000
    35 H1L2         4.6702    43.3878    38.2264 H            1 4RB401   0.0000
    36 H1A1         6.0444    43.6266    40.1219 H            1 4RB401   0.0000
    37 H1A2         5.9881    42.0141    40.3739 H            1 4RB401   0.0000
    38 H1A3         6.7392    42.6080    39.0511 H            1 4RB401   0.0000
    39 H1M1         6.1079    41.4886    36.8994 H            1 4RB401   0.0000
    40 H1M2         4.6839    41.8261    36.1749 H            1 4RB401   0.0000
    41 H1C          5.9130    39.3523    36.5719 H            1 4RB401   0.0000
@<TRIPOS>BOND
     1    1    2      ar
     2    1    9      ar
     3    2    3      ar
     4    3    4       1
     5    3    7      ar
     6    4    5      ar
     7    4    6      ar
     8    7    8      ar
     9    8    9      ar
    10    9   10       1
    11   10   11       2
    12   10   16       1
    13   11   12       1
    14   12   13       2
    15   13   14       1
    16   13   16       1
    17   14   15       2
    18   15   18       1
    19   16   17       1
    20   17   18       2
    21   18   19       1
    22   19   20       1
    23   20   21       1
    24   20   23       1
    25   21   22       1
    26   23   24       1
    27    1   25       1
    28    2   26       1
    29   24   41       1
    30    7   27       1
    31    8   28       1
    32   11   29       1
    33   14   30       1
    34   15   31       1
    35   19   32       1
    36   20   33       1
    37   21   34       1
    38   21   35       1
    39   22   36       1
    40   22   37       1
    41   22   38       1
    42   23   39       1
    43   23   40       1
@<TRIPOS>SUBSTRUCTURE
     1 4RB401      1 GROUP             4 A     4RB     0 **** 4RB A 401
