@<TRIPOS>MOLECULE
4a86_H35_2_ligand
   25    27     1     0     0
SMALL
NO_CHARGES


@<TRIPOS>ATOM
     1 CAM         10.7330    -0.0300     8.1310 C.2          1 H351161   0.0000
     2 CAO          9.8800     0.9560     8.4880 C.2          1 H351161   0.0000
     3 CAN         10.5400     1.7770     9.3940 C.2          1 H351161   0.0000
     4 OAL         11.7890     1.2400     9.5610 O.2          1 H351161   0.0000
     5 CAK         11.8720     0.2240     8.8330 C.2          1 H351161   0.0000
     6 CAP         13.0290    -0.6670     8.6840 C.3          1 H351161   0.0000
     7 N6          12.6120    -2.0070     9.1370 N.pl3        1 H351161   0.0000
     8 C6          13.4700    -2.4270    10.1400 C.ar         1 H351161   0.0000
     9 N1          14.4350    -1.5830    10.5500 N.ar         1 H351161   0.0000
    10 C2          15.3030    -1.9520    11.4950 C.ar         1 H351161   0.0000
    11 N3          15.1950    -3.1640    12.0390 N.ar         1 H351161   0.0000
    12 C4          14.2300    -4.0410    11.6710 C.ar         1 H351161   0.0000
    13 C5          13.3420    -3.6910    10.6970 C.ar         1 H351161   0.0000
    14 N7          12.5090    -4.7370    10.5080 N.2          1 H351161   0.0000
    15 C8          12.8710    -5.7290    11.3430 C.2          1 H351161   0.0000
    16 N9          13.9330    -5.2930    12.0520 N.pl3        1 H351161   0.0000
    17 HAM         10.5647    -0.7807     7.4921 H            1 H351161   0.0000
    18 HAO          8.9429     1.0734     8.1593 H            1 H351161   0.0000
    19 HAN         10.1757     2.5967     9.8361 H            1 H351161   0.0000
    20 HAP1        13.7890    -0.3375     9.2442 H            1 H351161   0.0000
    21 HAP2        13.3123    -0.7026     7.7256 H            1 H351161   0.0000
    22 H6          11.8368    -2.5272     8.7787 H            1 H351161   0.0000
    23 H7          16.0252    -1.3268    11.7910 H            1 H351161   0.0000
    24 H8          12.4332    -6.6245    11.4231 H            1 H351161   0.0000
    25 H9          14.4205    -5.8184    12.7494 H            1 H351161   0.0000
@<TRIPOS>BOND
     1    1    2       1
     2    1    5       2
     3    2    3       2
     4    3    4       1
     5    4    5       1
     6    5    6       1
     7    6    7       1
     8    7    8       1
     9    8    9      ar
    10    8   13      ar
    11    9   10      ar
    12   10   11      ar
    13   11   12      ar
    14   12   13      ar
    15   12   16       1
    16   13   14       1
    17   14   15       2
    18   15   16       1
    19    1   17       1
    20    2   18       1
    21    3   19       1
    22    6   20       1
    23    6   21       1
    24    7   22       1
    25   10   23       1
    26   15   24       1
    27   16   25       1
@<TRIPOS>SUBSTRUCTURE
     1 H351161     1 GROUP             4 A     H35     0 **** H35 A1161
