@<TRIPOS>MOLECULE
3fpb_ATP_2_ligand
   43    45     1     0     0
SMALL
NO_CHARGES


@<TRIPOS>ATOM
     1 PG          40.5020    10.4520    64.3280 P.3          1 ATP1002   0.0000
     2 O1G         40.8570    11.0550    62.8190 O.co2        1 ATP1002   0.0000
     3 O2G         41.4770     9.1660    64.5940 O.co2        1 ATP1002  -1.0000
     4 O3G         39.1440     9.9020    64.4090 O.co2        1 ATP1002  -1.0000
     5 PB          41.4630    11.9550    66.8430 P.3          1 ATP1002   0.0000
     6 O1B         40.6380    11.5120    68.2090 O.co2        1 ATP1002   0.0000
     7 O2B         41.6510    13.4030    66.9660 O.co2        1 ATP1002  -1.0000
     8 O3B         40.5910    11.7160    65.4190 O.3          1 ATP1002   0.0000
     9 PA          44.1300    11.3780    67.9840 P.3          1 ATP1002   0.0000
    10 O1A         43.4210    11.3300    69.4840 O.co2        1 ATP1002   0.0000
    11 O2A         44.9260    10.1390    67.8880 O.co2        1 ATP1002  -1.0000
    12 O3A         42.9770    11.2680    66.7680 O.3          1 ATP1002   0.0000
    13 O5'         45.0740    12.7830    67.6800 O.3          1 ATP1002   0.0000
    14 C5'         45.5650    13.7300    68.6300 C.3          1 ATP1002   0.0000
    15 C4'         44.6540    14.3890    69.7440 C.3          1 ATP1002   0.0000
    16 O4'         45.2420    15.0310    70.9320 O.3          1 ATP1002   0.0000
    17 C3'         43.5380    15.4150    69.3700 C.3          1 ATP1002   0.0000
    18 O3'         42.6590    15.2280    68.2610 O.3          1 ATP1002   0.0000
    19 C2'         44.3270    16.7480    69.4980 C.3          1 ATP1002   0.0000
    20 O2'         43.7220    18.0120    69.4310 O.3          1 ATP1002   0.0000
    21 C1'         45.4670    16.3970    70.4850 C.3          1 ATP1002   0.0000
    22 N9          46.8210    16.6230    69.8790 N.pl3        1 ATP1002   0.0000
    23 C8          47.4070    15.9690    68.8660 C.2          1 ATP1002   0.0000
    24 N7          48.7260    16.4580    68.6150 N.2          1 ATP1002   0.0000
    25 C5          48.9380    17.4700    69.5810 C.ar         1 ATP1002   0.0000
    26 C6          50.0380    18.3720    69.8910 C.ar         1 ATP1002   0.0000
    27 N6          51.2720    18.3060    69.1600 N.pl3        1 ATP1002   0.0000
    28 N1          49.9480    19.3330    70.8350 N.ar         1 ATP1002   0.0000
    29 C2          48.8460    19.4140    71.5740 C.ar         1 ATP1002   0.0000
    30 N3          47.7910    18.5390    71.2840 N.ar         1 ATP1002   0.0000
    31 C4          47.8080    17.5970    70.3110 C.ar         1 ATP1002   0.0000
    32 H5'1        45.9372    14.4884    68.0950 H            1 ATP1002   0.0000
    33 H5'2        46.3071    13.2705    69.1180 H            1 ATP1002   0.0000
    34 H4'         44.1458    13.6149    70.1215 H            1 ATP1002   0.0000
    35 H3'         42.9308    15.4144    70.1645 H            1 ATP1002   0.0000
    36 H5          42.5209    14.2497    68.1064 H            1 ATP1002   0.0000
    37 H2'         44.8297    16.7432    68.6335 H            1 ATP1002   0.0000
    38 H7          44.2413    18.6601    69.9881 H            1 ATP1002   0.0000
    39 H1'         45.3816    16.9983    71.2795 H            1 ATP1002   0.0000
    40 H9          46.9743    15.2300    68.3496 H            1 ATP1002   0.0000
    41 H10         52.0195    18.9316    69.3833 H            1 ATP1002   0.0000
    42 H11         51.3840    17.6344    68.4276 H            1 ATP1002   0.0000
    43 H12         48.7721    20.0805    72.3158 H            1 ATP1002   0.0000
@<TRIPOS>BOND
     1    1    2      ar
     2    1    3      ar
     3    1    4      ar
     4    1    8       1
     5    5    6      ar
     6    5    7      ar
     7    5    8       1
     8    5   12       1
     9    9   10      ar
    10    9   11      ar
    11    9   12       1
    12    9   13       1
    13   13   14       1
    14   14   15       1
    15   15   16       1
    16   15   17       1
    17   16   21       1
    18   17   18       1
    19   17   19       1
    20   19   20       1
    21   19   21       1
    22   21   22       1
    23   22   23       1
    24   22   31       1
    25   23   24       2
    26   24   25       1
    27   25   26      ar
    28   25   31      ar
    29   26   27       1
    30   26   28      ar
    31   28   29      ar
    32   29   30      ar
    33   30   31      ar
    34   29   43       1
    35   27   42       1
    36   27   41       1
    37   23   40       1
    38   14   32       1
    39   14   33       1
    40   15   34       1
    41   17   35       1
    42   18   36       1
    43   19   37       1
    44   20   38       1
    45   21   39       1
@<TRIPOS>SUBSTRUCTURE
     1 ATP1002     1 GROUP             4 A     ATP     0 **** ATP A1002
