@<TRIPOS>MOLECULE
2wpx_ACO_1_ligand
   85    87     1     0     0
SMALL
NO_CHARGES


@<TRIPOS>ATOM
     1 N1A        -84.8860   106.4100    40.4930 N.ar         1 ACO401   0.0000
     2 C2A        -86.0510   106.8900    40.9030 C.ar         1 ACO401   0.0000
     3 N3A        -87.0740   106.1270    41.3330 N.ar         1 ACO401   0.0000
     4 C4A        -86.9270   104.8030    41.3940 C.ar         1 ACO401   0.0000
     5 C5A        -85.7150   104.2720    40.9860 C.ar         1 ACO401   0.0000
     6 C6A        -84.6900   105.0880    40.5300 C.ar         1 ACO401   0.0000
     7 N6A        -83.5320   104.5550    40.1490 N.pl3        1 ACO401   0.0000
     8 N7A        -85.7940   102.9500    41.1070 N.2          1 ACO401   0.0000
     9 C8A        -86.9850   102.6610    41.6250 C.2          1 ACO401   0.0000
    10 N9A        -87.6710   103.7700    41.7890 N.pl3        1 ACO401   0.0000
    11 C1B        -89.0450   103.7170    42.3320 C.3          1 ACO401   0.0000
    12 C2B        -90.1740   104.0490    41.3550 C.3          1 ACO401   0.0000
    13 O2B        -91.3200   104.3960    42.1230 O.3          1 ACO401   0.0000
    14 C3B        -90.4130   102.7140    40.7410 C.3          1 ACO401   0.0000
    15 O3B        -91.7580   102.5270    40.3480 O.3          1 ACO401   0.0000
    16 P3B        -92.1210   102.8170    38.8180 P.3          1 ACO401   0.0000
    17 O7A        -93.6390   102.4940    38.3080 O.co2        1 ACO401   0.0000
    18 O8A        -91.2560   103.9180    38.1570 O.co2        1 ACO401  -1.0000
    19 O9A        -92.7510   104.0600    39.3830 O.co2        1 ACO401  -1.0000
    20 C4B        -90.3150   101.7500    41.9350 C.3          1 ACO401   0.0000
    21 O4B        -89.3430   102.3390    42.8350 O.3          1 ACO401   0.0000
    22 C5B        -89.8440   100.7440    40.8600 C.3          1 ACO401   0.0000
    23 O5B        -89.3020    99.7110    41.4130 O.3          1 ACO401   0.0000
    24 P1A        -89.0130    98.4680    40.5930 P.3          1 ACO401   0.0000
    25 O1A        -89.7210    97.2770    41.3960 O.co2        1 ACO401   0.0000
    26 O2A        -89.2590    98.4960    39.0890 O.co2        1 ACO401  -1.0000
    27 O3A        -87.4590    98.6060    40.6820 O.3          1 ACO401   0.0000
    28 P2A        -86.1470    97.7750    40.4840 P.3          1 ACO401   0.0000
    29 O4A        -85.3960    98.6150    39.3910 O.co2        1 ACO401   0.0000
    30 O5A        -86.3070    96.3740    40.0180 O.co2        1 ACO401  -1.0000
    31 O6A        -85.4040    98.1380    41.9150 O.3          1 ACO401   0.0000
    32 CBP        -83.4850    98.8910    43.2080 C.3          1 ACO401   0.0000
    33 CCP        -84.1710    97.7000    42.5070 C.3          1 ACO401   0.0000
    34 CDP        -84.7000    99.7360    42.8670 C.3          1 ACO401   0.0000
    35 CEP        -83.5590    98.1210    44.4760 C.3          1 ACO401   0.0000
    36 CAP        -82.3150    98.7140    42.2060 C.3          1 ACO401   0.0000
    37 OAP        -81.8280    99.9920    41.9490 O.3          1 ACO401   0.0000
    38 C9P        -81.1410    97.9400    42.8460 C.2          1 ACO401   0.0000
    39 O9P        -81.0910    96.7190    42.7870 O.2          1 ACO401   0.0000
    40 N8P        -80.1120    98.6820    43.2590 N.am         1 ACO401   0.0000
    41 C7P        -78.9240    98.1000    43.9120 C.3          1 ACO401   0.0000
    42 C6P        -79.4520    97.4270    45.1720 C.3          1 ACO401   0.0000
    43 C5P        -80.0480    98.3680    46.2070 C.2          1 ACO401   0.0000
    44 O5P        -79.6000    99.4840    46.4210 O.2          1 ACO401   0.0000
    45 N4P        -81.0470    97.8710    46.8690 N.am         1 ACO401   0.0000
    46 C3P        -81.5830    98.5720    48.0170 C.3          1 ACO401   0.0000
    47 C2P        -83.0440    98.9180    47.8350 C.3          1 ACO401   0.0000
    48 S1P        -83.4080    99.7530    49.3970 S.3          1 ACO401   0.0000
    49 C          -84.3770    98.5460    50.1220 C.2          1 ACO401   0.0000
    50 O          -84.3230    97.4000    49.6740 O.2          1 ACO401   0.0000
    51 CH3        -85.2940    98.9940    51.2610 C.3          1 ACO401   0.0000
    52 H2A        -86.1787   107.8818    40.8925 H            1 ACO401   0.0000
    53 H6A1       -83.4024   103.5640    40.1831 H            1 ACO401   0.0000
    54 H6A2       -82.7912   105.1454    39.8285 H            1 ACO401   0.0000
    55 H8A        -87.3080   101.7427    41.8540 H            1 ACO401   0.0000
    56 H1B        -89.1017   104.3510    43.1032 H            1 ACO401   0.0000
    57 H2B        -89.9221   104.7492    40.6869 H            1 ACO401   0.0000
    58 H7         -91.1102   105.1887    42.6953 H            1 ACO401   0.0000
    59 H3B        -89.7619   102.4987    40.0132 H            1 ACO401   0.0000
    60 H4B        -91.1916   101.5242    42.3600 H            1 ACO401   0.0000
    61 H5B1       -89.1741   101.1880    40.2650 H            1 ACO401   0.0000
    62 H5B2       -90.6306   100.4513    40.3163 H            1 ACO401   0.0000
    63 HCP1       -83.5684    97.3405    41.7945 H            1 ACO401   0.0000
    64 HCP2       -84.3596    96.9823    43.1774 H            1 ACO401   0.0000
    65 HDP1       -84.5686   100.6643    43.2147 H            1 ACO401   0.0000
    66 HDP2       -84.8176    99.7654    41.8744 H            1 ACO401   0.0000
    67 HDP3       -85.5138    99.3347    43.2874 H            1 ACO401   0.0000
    68 HEP1       -83.1578    98.6596    45.2169 H            1 ACO401   0.0000
    69 HEP2       -84.5153    97.9211    44.6893 H            1 ACO401   0.0000
    70 HEP3       -83.0537    97.2639    44.3755 H            1 ACO401   0.0000
    71 HAP        -82.6242    98.2699    41.3651 H            1 ACO401   0.0000
    72 H21        -82.3146   100.3833    41.1679 H            1 ACO401   0.0000
    73 H8P        -80.1474    99.6717    43.1205 H            1 ACO401   0.0000
    74 H7P1       -78.2662    98.8159    44.1460 H            1 ACO401   0.0000
    75 H7P2       -78.4874    97.4291    43.3125 H            1 ACO401   0.0000
    76 H6P1       -78.6942    96.9353    45.6009 H            1 ACO401   0.0000
    77 H6P2       -80.1610    96.7759    44.9011 H            1 ACO401   0.0000
    78 H4P        -81.4485    97.0002    46.5852 H            1 ACO401   0.0000
    79 H3P1       -81.0649    99.4168    48.1508 H            1 ACO401   0.0000
    80 H3P2       -81.4867    97.9905    48.8248 H            1 ACO401   0.0000
    81 H2P1       -83.6030    98.0969    47.7200 H            1 ACO401   0.0000
    82 H2P2       -83.1814    99.5269    47.0538 H            1 ACO401   0.0000
    83 HH31       -85.8080    98.2078    51.6040 H            1 ACO401   0.0000
    84 HH32       -84.7427    99.3802    52.0005 H            1 ACO401   0.0000
    85 HH33       -85.9309    99.6870    50.9232 H            1 ACO401   0.0000
@<TRIPOS>BOND
     1    1    2      ar
     2    1    6      ar
     3    2    3      ar
     4    3    4      ar
     5    4    5      ar
     6    4   10       1
     7    5    6      ar
     8    5    8       1
     9    6    7       1
    10    8    9       2
    11    9   10       1
    12   10   11       1
    13   11   12       1
    14   11   21       1
    15   12   13       1
    16   12   14       1
    17   14   15       1
    18   14   20       1
    19   15   16       1
    20   16   17      ar
    21   16   18      ar
    22   16   19      ar
    23   20   21       1
    24   20   22       1
    25   22   23       1
    26   23   24       1
    27   24   25      ar
    28   24   26      ar
    29   24   27       1
    30   27   28       1
    31   28   29      ar
    32   28   30      ar
    33   28   31       1
    34   31   33       1
    35   32   33       1
    36   32   34       1
    37   32   35       1
    38   32   36       1
    39   36   37       1
    40   36   38       1
    41   38   39       2
    42   38   40      am
    43   40   41       1
    44   41   42       1
    45   42   43       1
    46   43   44       2
    47   43   45      am
    48   45   46       1
    49   46   47       1
    50   47   48       1
    51   48   49       1
    52   49   50       2
    53   49   51       1
    54    2   52       1
    55    7   53       1
    56    7   54       1
    57    9   55       1
    58   11   56       1
    59   12   57       1
    60   13   58       1
    61   14   59       1
    62   51   85       1
    63   51   84       1
    64   20   60       1
    65   22   61       1
    66   22   62       1
    67   51   83       1
    68   47   82       1
    69   33   63       1
    70   33   64       1
    71   34   65       1
    72   34   66       1
    73   34   67       1
    74   35   68       1
    75   35   69       1
    76   35   70       1
    77   36   71       1
    78   37   72       1
    79   40   73       1
    80   41   74       1
    81   41   75       1
    82   42   76       1
    83   42   77       1
    84   45   78       1
    85   46   79       1
    86   46   80       1
    87   47   81       1
@<TRIPOS>SUBSTRUCTURE
     1 ACO401      1 GROUP             4 A     ACO     0 **** ACO A 401
