@<TRIPOS>MOLECULE
3oah_OAH_2_ligand
   34    36     1     0     0
SMALL
NO_CHARGES


@<TRIPOS>ATOM
     1 P          -47.2780    93.1790   240.0370 P.3          1 OAH999   0.0000
     2 N1         -43.3960    85.4400   244.0530 N.ar         1 OAH999   0.0000
     3 C2         -43.7070    86.2380   243.0460 C.ar         1 OAH999   0.0000
     4 N3         -44.6820    87.1250   243.1390 N.ar         1 OAH999   0.0000
     5 C4         -45.3920    87.2410   244.2710 C.ar         1 OAH999   0.0000
     6 C5         -45.0960    86.4200   245.3500 C.ar         1 OAH999   0.0000
     7 C6         -44.0620    85.5010   245.2140 C.ar         1 OAH999   0.0000
     8 N6         -43.7300    84.7030   246.2250 N.pl3        1 OAH999   0.0000
     9 N7         -45.9350    86.7350   246.3320 N.2          1 OAH999   0.0000
    10 C8         -46.7270    87.7110   245.8940 C.2          1 OAH999   0.0000
    11 N9         -46.3990    88.0260   244.6420 N.pl3        1 OAH999   0.0000
    12 C1'        -47.0220    89.0780   243.8070 C.3          1 OAH999   0.0000
    13 O1P        -46.2840    93.7130   241.1850 O.co2        1 OAH999   0.0000
    14 C2'        -48.5140    89.2780   244.0640 C.3          1 OAH999   0.0000
    15 O2P        -46.3370    92.7520   238.8030 O.co2        1 OAH999  -1.0000
    16 C3'        -48.8030    90.2110   242.8890 C.3          1 OAH999   0.0000
    17 O3'        -48.4450    91.5570   243.2130 O.3          1 OAH999   0.0000
    18 O3P        -48.3080    94.1730   239.6630 O.co2        1 OAH999  -1.0000
    19 C4'        -47.8840    89.6770   241.7860 C.3          1 OAH999   0.0000
    20 O4'        -47.0170    88.7180   242.4180 O.3          1 OAH999   0.0000
    21 C5'        -47.0640    90.8350   241.2140 C.3          1 OAH999   0.0000
    22 O5'        -47.9110    91.8140   240.6090 O.3          1 OAH999   0.0000
    23 H1         -43.1912    86.1686   242.1921 H            1 OAH999   0.0000
    24 H2         -44.2319    84.7546   247.0884 H            1 OAH999   0.0000
    25 H3         -42.9785    84.0515   246.1217 H            1 OAH999   0.0000
    26 H4         -47.4571    88.1421   246.4241 H            1 OAH999   0.0000
    27 H1'        -46.5372    89.9433   243.9346 H            1 OAH999   0.0000
    28 H2'1       -48.6922    89.7128   244.9467 H            1 OAH999   0.0000
    29 H2'2       -49.0276    88.4220   244.0043 H            1 OAH999   0.0000
    30 H3'        -49.7627    90.1527   242.6140 H            1 OAH999   0.0000
    31 H9         -48.1693    92.0381   242.3808 H            1 OAH999   0.0000
    32 H4'        -48.4214    89.2399   241.0648 H            1 OAH999   0.0000
    33 H5'1       -46.4321    90.4792   240.5255 H            1 OAH999   0.0000
    34 H5'2       -46.5446    91.2640   241.9530 H            1 OAH999   0.0000
@<TRIPOS>BOND
     1    1   13      ar
     2    1   15      ar
     3    1   18      ar
     4    1   22       1
     5    2    3      ar
     6    2    7      ar
     7    3    4      ar
     8    4    5      ar
     9    5    6      ar
    10    5   11       1
    11    6    7      ar
    12    6    9       1
    13    7    8       1
    14    9   10       2
    15   10   11       1
    16   11   12       1
    17   12   14       1
    18   12   20       1
    19   14   16       1
    20   16   17       1
    21   16   19       1
    22   19   20       1
    23   19   21       1
    24   21   22       1
    25    3   23       1
    26    8   24       1
    27    8   25       1
    28   10   26       1
    29   12   27       1
    30   21   34       1
    31   14   28       1
    32   14   29       1
    33   21   33       1
    34   16   30       1
    35   17   31       1
    36   19   32       1
@<TRIPOS>SUBSTRUCTURE
     1 OAH999      1 GROUP             4 A     OAH     0 **** OAH A 999
