@<TRIPOS>MOLECULE
2y0d_UGA_2_ligand
   56    58     1     0     0
SMALL
NO_CHARGES


@<TRIPOS>ATOM
     1 C1'        -41.5380     0.1230    10.8860 C.3          1 UGA500   0.0000
     2 C2'        -40.0270     0.1300    11.1580 C.3          1 UGA500   0.0000
     3 O2'        -39.7290     0.6500    12.4730 O.3          1 UGA500   0.0000
     4 C3'        -39.2640     0.9420    10.1210 C.3          1 UGA500   0.0000
     5 O3'        -37.8370     0.7690    10.3150 O.3          1 UGA500   0.0000
     6 C4'        -39.6420     0.4370     8.7340 C.3          1 UGA500   0.0000
     7 O4'        -38.9130     1.1260     7.6980 O.3          1 UGA500   0.0000
     8 C5'        -41.1360     0.5400     8.4330 C.3          1 UGA500   0.0000
     9 O5'        -41.9310    -0.0450     9.4900 O.3          1 UGA500   0.0000
    10 C6'        -41.3580    -0.0690     7.0370 C.2          1 UGA500   0.0000
    11 O'P        -41.5600     0.7020     6.0510 O.co2        1 UGA500   0.0000
    12 O'Q        -41.3180    -1.3200     6.8440 O.co2        1 UGA500  -1.0000
    13 PB         -43.5080     1.8210    11.7160 P.3          1 UGA500   0.0000
    14 O1B        -43.6740     3.1440    11.0310 O.co2        1 UGA500   0.0000
    15 O2B        -44.5140     0.7310    11.4700 O.co2        1 UGA500  -1.0000
    16 O3B        -42.0000     1.3280    11.4770 O.3          1 UGA500   0.0000
    17 O3A        -43.6410     2.3000    13.2400 O.3          1 UGA500   0.0000
    18 PA         -42.7550     1.8480    14.5230 P.3          1 UGA500   0.0000
    19 O1A        -41.8810     0.6820    14.1010 O.co2        1 UGA500   0.0000
    20 O2A        -42.2330     3.1570    15.1570 O.co2        1 UGA500  -1.0000
    21 O5D        -43.8790     1.2260    15.5130 O.3          1 UGA500   0.0000
    22 C5D        -44.6870     0.1220    15.1190 C.3          1 UGA500   0.0000
    23 C4D        -45.5160    -0.3090    16.3220 C.3          1 UGA500   0.0000
    24 O4D        -44.6800    -0.7940    17.3750 O.3          1 UGA500   0.0000
    25 C3D        -46.2570     0.8780    16.9210 C.3          1 UGA500   0.0000
    26 O3D        -47.6700     0.6190    16.8830 O.3          1 UGA500   0.0000
    27 C2D        -45.7190     1.0140    18.3410 C.3          1 UGA500   0.0000
    28 O2D        -46.8040     1.3440    19.1900 O.3          1 UGA500   0.0000
    29 C1D        -45.1590    -0.3540    18.6500 C.3          1 UGA500   0.0000
    30 N1         -44.0630    -0.4330    19.6290 N.pl3        1 UGA500   0.0000
    31 C6         -42.8230    -0.0290    19.2900 C.2          1 UGA500   0.0000
    32 C2         -44.2900    -0.9940    20.8420 C.2          1 UGA500   0.0000
    33 O2         -45.4070    -1.4150    21.1930 O.2          1 UGA500   0.0000
    34 N3         -43.3200    -1.1160    21.7630 N.pl3        1 UGA500   0.0000
    35 C4         -42.0720    -0.6920    21.4740 C.2          1 UGA500   0.0000
    36 O4         -41.2190    -0.8410    22.3640 O.2          1 UGA500   0.0000
    37 C5         -41.7750    -0.1290    20.2150 C.2          1 UGA500   0.0000
    38 H1'        -41.9331    -0.6363    11.4031 H            1 UGA500   0.0000
    39 H2'        -39.6995    -0.8139    11.1157 H            1 UGA500   0.0000
    40 H3         -40.4877     0.4463    13.0918 H            1 UGA500   0.0000
    41 H3'        -39.5025     1.9094    10.2059 H            1 UGA500   0.0000
    42 H5         -37.5190    -0.0095     9.7738 H            1 UGA500   0.0000
    43 H4'        -39.3912    -0.5299     8.6868 H            1 UGA500   0.0000
    44 H7         -39.4686     1.1625     6.8673 H            1 UGA500   0.0000
    45 H5'        -41.3686     1.5112     8.3807 H            1 UGA500   0.0000
    46 H5D1       -44.1053    -0.6342    14.8194 H            1 UGA500   0.0000
    47 H5D2       -45.2916     0.3942    14.3704 H            1 UGA500   0.0000
    48 H4D        -46.1683    -1.0168    16.0508 H            1 UGA500   0.0000
    49 H3D        -46.0498     1.7055    16.3992 H            1 UGA500   0.0000
    50 H13        -47.9476     0.1599    17.7269 H            1 UGA500   0.0000
    51 H2D        -45.0041     1.7117    18.3871 H            1 UGA500   0.0000
    52 H15        -47.4841     1.8652    18.6744 H            1 UGA500   0.0000
    53 H1D        -45.9037    -0.9532    18.9440 H            1 UGA500   0.0000
    54 H17        -42.6505     0.3424    18.3777 H            1 UGA500   0.0000
    55 H18        -43.5212    -1.5181    22.6562 H            1 UGA500   0.0000
    56 H19        -40.8528     0.1864    19.9914 H            1 UGA500   0.0000
@<TRIPOS>BOND
     1    1    2       1
     2    1    9       1
     3    1   16       1
     4    2    3       1
     5    2    4       1
     6    4    5       1
     7    4    6       1
     8    6    7       1
     9    6    8       1
    10    8    9       1
    11    8   10       1
    12   10   11      ar
    13   10   12      ar
    14   13   14      ar
    15   13   15      ar
    16   13   16       1
    17   13   17       1
    18   17   18       1
    19   18   19      ar
    20   18   20      ar
    21   18   21       1
    22   21   22       1
    23   22   23       1
    24   23   24       1
    25   23   25       1
    26   24   29       1
    27   25   26       1
    28   25   27       1
    29   27   28       1
    30   27   29       1
    31   29   30       1
    32   30   31       1
    33   30   32       1
    34   31   37       2
    35   32   33       2
    36   32   34       1
    37   34   35       1
    38   35   36       2
    39   35   37       1
    40    1   38       1
    41    2   39       1
    42    3   40       1
    43    4   41       1
    44    5   42       1
    45    6   43       1
    46    7   44       1
    47    8   45       1
    48   37   56       1
    49   34   55       1
    50   31   54       1
    51   22   46       1
    52   22   47       1
    53   23   48       1
    54   25   49       1
    55   26   50       1
    56   27   51       1
    57   28   52       1
    58   29   53       1
@<TRIPOS>SUBSTRUCTURE
     1 UGA500      1 GROUP             4 B     UGA     0 **** UGA B 500
