@<TRIPOS>MOLECULE
3a5y_KAA_3_ligand
   60    62     1     0     0
SMALL
NO_CHARGES


@<TRIPOS>ATOM
     1 NZ          -4.5630    31.4890    24.1680 N.4          1 KAA1992   1.0000
     2 CE          -3.7310    30.2840    24.0360 C.3          1 KAA1992   0.0000
     3 CD          -3.0100    30.0010    25.3560 C.3          1 KAA1992   0.0000
     4 CG          -3.9960    29.7510    26.5000 C.3          1 KAA1992   0.0000
     5 CB          -3.2390    29.3450    27.7670 C.3          1 KAA1992   0.0000
     6 CA          -4.1790    28.8110    28.8500 C.3          1 KAA1992   0.0000
     7 N           -4.9510    29.9050    29.4570 N.4          1 KAA1992   1.0000
     8 C           -3.3370    28.1180    29.9230 C.2          1 KAA1992   0.0000
     9 O           -3.0620    28.7070    30.9680 O.2          1 KAA1992   0.0000
    10 N8          -2.9160    26.8910    29.6350 N.am         1 KAA1992   0.0000
    11 S1          -2.1210    26.1790    30.8650 S.o2         1 KAA1992   0.0000
    12 O1S         -2.9240    26.2740    32.1270 O.2          1 KAA1992   0.0000
    13 O2S         -1.9410    24.7340    30.5070 O.2          1 KAA1992   0.0000
    14 O5'         -0.8430    26.7940    31.0770 O.3          1 KAA1992   0.0000
    15 C5'          0.1910    26.7360    30.0880 C.3          1 KAA1992   0.0000
    16 C4'          1.4680    26.0730    30.6190 C.3          1 KAA1992   0.0000
    17 O4'          1.9800    26.7430    31.7810 O.3          1 KAA1992   0.0000
    18 C3'          1.2150    24.6490    31.1150 C.3          1 KAA1992   0.0000
    19 O3'          1.1800    23.7630    29.9930 O.3          1 KAA1992   0.0000
    20 C2'          2.5190    24.4220    31.8790 C.3          1 KAA1992   0.0000
    21 O2'          3.5620    24.0560    30.9730 O.3          1 KAA1992   0.0000
    22 C1'          2.8150    25.8010    32.4770 C.3          1 KAA1992   0.0000
    23 N9           2.4280    25.8670    33.9040 N.pl3        1 KAA1992   0.0000
    24 C8           1.1960    26.0460    34.3770 C.2          1 KAA1992   0.0000
    25 N7           1.2390    26.1390    35.7040 N.2          1 KAA1992   0.0000
    26 C5           2.5080    26.0120    36.0810 C.ar         1 KAA1992   0.0000
    27 C4           3.2670    25.8290    34.9340 C.ar         1 KAA1992   0.0000
    28 N3           4.5930    25.6640    35.0360 N.ar         1 KAA1992   0.0000
    29 C2           5.1780    25.6740    36.2200 C.ar         1 KAA1992   0.0000
    30 N1           4.4890    25.8510    37.3340 N.ar         1 KAA1992   0.0000
    31 C6           3.1610    26.0290    37.3070 C.ar         1 KAA1992   0.0000
    32 N6           2.4900    26.2910    38.4260 N.pl3        1 KAA1992   0.0000
    33 HZ1         -5.0307    31.6676    23.3024 H            1 KAA1992   0.0000
    34 HZ2         -5.2404    31.3489    24.8902 H            1 KAA1992   0.0000
    35 HE1         -3.0550    30.4255    23.3128 H            1 KAA1992   0.0000
    36 HE2         -4.3116    29.5043    23.8017 H            1 KAA1992   0.0000
    37 HD1         -2.4382    30.7880    25.5877 H            1 KAA1992   0.0000
    38 HD2         -2.4335    29.1918    25.2429 H            1 KAA1992   0.0000
    39 HG1         -4.6244    29.0176    26.2408 H            1 KAA1992   0.0000
    40 HG2         -4.5148    30.5871    26.6782 H            1 KAA1992   0.0000
    41 HB1         -2.7557    30.1442    28.1244 H            1 KAA1992   0.0000
    42 HB2         -2.5776    28.6323    27.5335 H            1 KAA1992   0.0000
    43 HA          -4.8081    28.1480    28.4442 H            1 KAA1992   0.0000
    44 H12         -5.8025    30.0340    28.9488 H            1 KAA1992   0.0000
    45 H13         -5.1615    29.6770    30.4076 H            1 KAA1992   0.0000
    46 H14         -3.0717    26.4491    28.7515 H            1 KAA1992   0.0000
    47 H5'1         0.4096    27.6672    29.7963 H            1 KAA1992   0.0000
    48 H5'2        -0.1422    26.2109    29.3049 H            1 KAA1992   0.0000
    49 H4'          2.1650    26.0614    29.9020 H            1 KAA1992   0.0000
    50 H3'          0.4042    24.5760    31.6958 H            1 KAA1992   0.0000
    51 H19          0.5711    22.9954    30.1933 H            1 KAA1992   0.0000
    52 H2'          2.4038    23.7339    32.5954 H            1 KAA1992   0.0000
    53 H21          3.5822    23.0613    30.8722 H            1 KAA1992   0.0000
    54 H1'          3.7806    26.0346    32.3627 H            1 KAA1992   0.0000
    55 H23          0.3667    26.1019    33.8210 H            1 KAA1992   0.0000
    56 H24          6.1680    25.5443    36.2751 H            1 KAA1992   0.0000
    57 H25          2.9675    26.3013    39.3046 H            1 KAA1992   0.0000
    58 H26          1.5083    26.4776    38.3883 H            1 KAA1992   0.0000
    59 HZ3         -3.9838    32.2701    24.4013 H            1 KAA1992   0.0000
    60 H28         -4.4142    30.7482    29.4275 H            1 KAA1992   0.0000
@<TRIPOS>BOND
     1    1    2       1
     2    2    3       1
     3    3    4       1
     4    4    5       1
     5    5    6       1
     6    6    7       1
     7    6    8       1
     8    8    9       2
     9    8   10      am
    10   10   11       1
    11   11   12       2
    12   11   13       2
    13   11   14       1
    14   14   15       1
    15   15   16       1
    16   16   17       1
    17   16   18       1
    18   17   22       1
    19   18   19       1
    20   18   20       1
    21   20   21       1
    22   20   22       1
    23   22   23       1
    24   23   24       1
    25   23   27       1
    26   24   25       2
    27   25   26       1
    28   26   27      ar
    29   26   31      ar
    30   27   28      ar
    31   28   29      ar
    32   29   30      ar
    33   30   31      ar
    34   31   32       1
    35    1   33       1
    36    1   34       1
    37    2   35       1
    38    2   36       1
    39    3   37       1
    40    3   38       1
    41    4   39       1
    42    4   40       1
    43    5   41       1
    44    5   42       1
    45    6   43       1
    46    7   44       1
    47    7   45       1
    48   10   46       1
    49   15   47       1
    50   15   48       1
    51   16   49       1
    52   18   50       1
    53   19   51       1
    54   20   52       1
    55   21   53       1
    56   22   54       1
    57   24   55       1
    58   29   56       1
    59   32   57       1
    60   32   58       1
    61    1   59       1
    62    7   60       1
@<TRIPOS>SUBSTRUCTURE
     1 KAA1992     1 GROUP             4 C     KAA     0 **** KAA C1992
