@<TRIPOS>MOLECULE
4gvz_ADP_1_ligand
   39    41     1     0     0
SMALL
NO_CHARGES


@<TRIPOS>ATOM
     1 PB          -7.6130    -6.0600    19.9070 P.3          1 ADP401   0.0000
     2 O1B         -8.3330    -4.7810    20.2730 O.co2        1 ADP401   0.0000
     3 O2B         -7.2700    -7.0240    21.0210 O.co2        1 ADP401  -1.0000
     4 O3B         -8.1320    -6.6430    18.6090 O.co2        1 ADP401  -1.0000
     5 PA          -5.1050    -4.3550    19.8240 P.3          1 ADP401   0.0000
     6 O1A         -5.7240    -3.2200    20.5730 O.co2        1 ADP401   0.0000
     7 O2A         -3.9910    -4.1170    18.8370 O.co2        1 ADP401  -1.0000
     8 O3A         -5.8650    -5.6960    19.7120 O.3          1 ADP401   0.0000
     9 O5'         -3.9230    -4.7890    21.1920 O.3          1 ADP401   0.0000
    10 C5'         -4.2300    -5.6010    22.1990 C.3          1 ADP401   0.0000
    11 C4'         -2.9380    -6.3710    22.7430 C.3          1 ADP401   0.0000
    12 O4'         -2.8210    -7.6340    22.0700 O.3          1 ADP401   0.0000
    13 C3'         -1.6150    -5.6130    22.4530 C.3          1 ADP401   0.0000
    14 O3'         -0.7800    -5.5000    23.5660 O.3          1 ADP401   0.0000
    15 C2'         -0.8520    -6.5160    21.4420 C.3          1 ADP401   0.0000
    16 O2'          0.4760    -6.6740    21.8420 O.3          1 ADP401   0.0000
    17 C1'         -1.5200    -7.8780    21.6990 C.3          1 ADP401   0.0000
    18 N9          -1.4830    -8.8130    20.5100 N.pl3        1 ADP401   0.0000
    19 C8          -2.3050    -8.6880    19.3600 C.2          1 ADP401   0.0000
    20 N7          -2.0670    -9.6500    18.4390 N.2          1 ADP401   0.0000
    21 C5          -1.0480   -10.4330    19.0090 C.ar         1 ADP401   0.0000
    22 C6          -0.3660   -11.5840    18.5450 C.ar         1 ADP401   0.0000
    23 N6          -0.6600   -12.1390    17.3230 N.pl3        1 ADP401   0.0000
    24 N1           0.6110   -12.1770    19.3070 N.ar         1 ADP401   0.0000
    25 C2           0.8620   -11.5780    20.5180 C.ar         1 ADP401   0.0000
    26 N3           0.3000   -10.4910    21.0850 N.ar         1 ADP401   0.0000
    27 C4          -0.6760    -9.9230    20.2930 C.ar         1 ADP401   0.0000
    28 H5'1        -4.8998    -6.2727    21.8826 H            1 ADP401   0.0000
    29 H5'2        -4.6246    -5.0618    22.9430 H            1 ADP401   0.0000
    30 H4'         -3.0282    -6.5229    23.7273 H            1 ADP401   0.0000
    31 H3'         -1.8007    -4.7142    22.0560 H            1 ADP401   0.0000
    32 H5           0.0951    -5.9436    23.3726 H            1 ADP401   0.0000
    33 H2'         -0.9422    -6.2075    20.4951 H            1 ADP401   0.0000
    34 H7           1.0829    -6.3233    21.1288 H            1 ADP401   0.0000
    35 H1'         -1.0512    -8.3205    22.4635 H            1 ADP401   0.0000
    36 H9          -2.9871    -7.9662    19.2429 H            1 ADP401   0.0000
    37 H10         -0.1680   -12.9520    17.0117 H            1 ADP401   0.0000
    38 H11         -1.3660   -11.7299    16.7449 H            1 ADP401   0.0000
    39 H12          1.5740   -12.0176    21.0655 H            1 ADP401   0.0000
@<TRIPOS>BOND
     1    1    2      ar
     2    1    3      ar
     3    1    4      ar
     4    1    8       1
     5    5    6      ar
     6    5    7      ar
     7    5    8       1
     8    5    9       1
     9    9   10       1
    10   10   11       1
    11   11   12       1
    12   11   13       1
    13   12   17       1
    14   13   14       1
    15   13   15       1
    16   15   16       1
    17   15   17       1
    18   17   18       1
    19   18   19       1
    20   18   27       1
    21   19   20       2
    22   20   21       1
    23   21   22      ar
    24   21   27      ar
    25   22   23       1
    26   22   24      ar
    27   24   25      ar
    28   25   26      ar
    29   26   27      ar
    30   25   39       1
    31   23   38       1
    32   23   37       1
    33   10   28       1
    34   10   29       1
    35   11   30       1
    36   13   31       1
    37   14   32       1
    38   15   33       1
    39   16   34       1
    40   17   35       1
    41   19   36       1
@<TRIPOS>SUBSTRUCTURE
     1 ADP401      1 GROUP             4 A     ADP     0 **** ADP A 401
