@<TRIPOS>MOLECULE
2rgj_FAD_1_ligand
   84    89     1     0     0
SMALL
NO_CHARGES


@<TRIPOS>ATOM
     1 PA          22.3550    11.8280    70.4000 P.3          1 FAD403   0.0000
     2 O1A         21.6640    11.2130    69.2330 O.co2        1 FAD403   0.0000
     3 O2A         23.8470    11.8890    70.2160 O.co2        1 FAD403  -1.0000
     4 O5B         22.0880    11.0210    71.7550 O.3          1 FAD403   0.0000
     5 C5B         20.8570    10.4250    72.0730 C.3          1 FAD403   0.0000
     6 C4B         21.2140     9.2370    72.9630 C.3          1 FAD403   0.0000
     7 O4B         20.1100     8.8070    73.7410 O.3          1 FAD403   0.0000
     8 C3B         21.6230     8.0570    72.1000 C.3          1 FAD403   0.0000
     9 O3B         22.7780     7.4660    72.6690 O.3          1 FAD403   0.0000
    10 C2B         20.4180     7.1360    72.1270 C.3          1 FAD403   0.0000
    11 O2B         20.8470     5.8110    72.0000 O.3          1 FAD403   0.0000
    12 C1B         19.8720     7.4260    73.5120 C.3          1 FAD403   0.0000
    13 N9A         18.4430     7.1470    73.6870 N.pl3        1 FAD403   0.0000
    14 C8A         17.4500     7.2180    72.7410 C.2          1 FAD403   0.0000
    15 N7A         16.2740     6.9170    73.3300 N.2          1 FAD403   0.0000
    16 C5A         16.5100     6.6250    74.6370 C.ar         1 FAD403   0.0000
    17 C6A         15.6800     6.2340    75.6990 C.ar         1 FAD403   0.0000
    18 N6A         14.4700     5.7030    75.4790 N.pl3        1 FAD403   0.0000
    19 N1A         16.2470     6.0440    76.9430 N.ar         1 FAD403   0.0000
    20 C2A         17.5970     6.2060    77.1680 C.ar         1 FAD403   0.0000
    21 N3A         18.3880     6.5790    76.1080 N.ar         1 FAD403   0.0000
    22 C4A         17.8630     6.7890    74.8680 C.ar         1 FAD403   0.0000
    23 N1          25.2330    13.6140    64.0940 N.2          1 FAD403   0.0000
    24 C2          25.9090    14.1450    63.0460 C.2          1 FAD403   0.0000
    25 O2          25.7710    15.3400    62.8350 O.2          1 FAD403   0.0000
    26 N3          26.6710    13.3140    62.2570 N.pl3        1 FAD403   0.0000
    27 C4          26.7690    11.9900    62.5560 C.2          1 FAD403   0.0000
    28 O4          27.4630    11.2710    61.8680 O.2          1 FAD403   0.0000
    29 C4X         26.0720    11.4490    63.6240 C.2          1 FAD403   0.0000
    30 N5          26.1260    10.0860    63.9330 N.2          1 FAD403   0.0000
    31 C5X         25.4220     9.6050    65.0270 C.ar         1 FAD403   0.0000
    32 C6          25.4910     8.2430    65.3370 C.ar         1 FAD403   0.0000
    33 C7          24.7490     7.7740    66.4410 C.ar         1 FAD403   0.0000
    34 C7M         24.8040     6.3280    66.8040 C.3          1 FAD403   0.0000
    35 C8          23.9770     8.6560    67.2290 C.ar         1 FAD403   0.0000
    36 C8M         23.1690     8.1700    68.3950 C.3          1 FAD403   0.0000
    37 C9          23.9280    10.0080    66.8990 C.ar         1 FAD403   0.0000
    38 C9A         24.6430    10.4940    65.7940 C.ar         1 FAD403   0.0000
    39 N10         24.5790    11.8540    65.4530 N.pl3        1 FAD403   0.0000
    40 C10         25.3000    12.2950    64.3940 C.2          1 FAD403   0.0000
    41 C1'         23.6740    12.8640    66.1130 C.3          1 FAD403   0.0000
    42 C2'         24.4630    13.8020    67.0390 C.3          1 FAD403   0.0000
    43 O2'         25.1130    13.0780    68.0740 O.3          1 FAD403   0.0000
    44 C3'         23.5350    14.8060    67.6900 C.3          1 FAD403   0.0000
    45 O3'         22.7140    15.3590    66.7170 O.3          1 FAD403   0.0000
    46 C4'         24.1900    15.9820    68.4230 C.3          1 FAD403   0.0000
    47 O4'         25.5910    15.8230    68.6230 O.3          1 FAD403   0.0000
    48 C5'         23.4620    16.1940    69.7640 C.3          1 FAD403   0.0000
    49 O5'         23.3900    14.9490    70.4200 O.3          1 FAD403   0.0000
    50 P           22.2640    14.4960    71.4670 P.3          1 FAD403   0.0000
    51 O1P         22.9310    13.9970    72.6920 O.co2        1 FAD403   0.0000
    52 O2P         21.1640    15.5010    71.6770 O.co2        1 FAD403  -1.0000
    53 O3P         21.6160    13.2190    70.7350 O.3          1 FAD403   0.0000
    54 H5B1        20.3911    10.1160    71.2439 H            1 FAD403   0.0000
    55 H5B2        20.2708    11.0691    72.5644 H            1 FAD403   0.0000
    56 H4B         21.9708     9.4875    73.5668 H            1 FAD403   0.0000
    57 H3B         21.8105     8.3579    71.1649 H            1 FAD403   0.0000
    58 H5          22.5710     7.1558    73.5969 H            1 FAD403   0.0000
    59 H2B         19.7576     7.3765    71.4156 H            1 FAD403   0.0000
    60 H7          21.4588     5.5846    72.7580 H            1 FAD403   0.0000
    61 H1B         20.3897     6.8934    74.1816 H            1 FAD403   0.0000
    62 H8A         17.5772     7.4533    71.7774 H            1 FAD403   0.0000
    63 H6A1        13.8953     5.4314    76.2510 H            1 FAD403   0.0000
    64 H6A2        14.1415     5.5782    74.5428 H            1 FAD403   0.0000
    65 H2A         17.9893     6.0566    78.0756 H            1 FAD403   0.0000
    66 H13         27.1534    13.6836    61.4628 H            1 FAD403   0.0000
    67 H14         26.0506     7.6192    64.7913 H            1 FAD403   0.0000
    68 H7M1        24.2264     6.1628    67.6034 H            1 FAD403   0.0000
    69 H7M2        24.4751     5.7787    66.0358 H            1 FAD403   0.0000
    70 H7M3        25.7475     6.0732    67.0161 H            1 FAD403   0.0000
    71 H8M1        22.6976     8.9432    68.8193 H            1 FAD403   0.0000
    72 H8M2        22.4955     7.5020    68.0785 H            1 FAD403   0.0000
    73 H8M3        23.7750     7.7408    69.0647 H            1 FAD403   0.0000
    74 H21         23.3804    10.6356    67.4524 H            1 FAD403   0.0000
    75 H1'1        22.9840    12.3800    66.6512 H            1 FAD403   0.0000
    76 H1'2        23.2233    13.4085    65.4056 H            1 FAD403   0.0000
    77 H2'         25.1494    14.2915    66.5012 H            1 FAD403   0.0000
    78 H25         24.4307    12.5918    68.6199 H            1 FAD403   0.0000
    79 H3'         22.9567    14.3166    68.3427 H            1 FAD403   0.0000
    80 H27         21.7580    15.1672    66.9391 H            1 FAD403   0.0000
    81 H4'         24.0522    16.8024    67.8680 H            1 FAD403   0.0000
    82 H29         25.8075    14.8503    68.7069 H            1 FAD403   0.0000
    83 H5'1        22.5402    16.5445    69.5984 H            1 FAD403   0.0000
    84 H5'2        23.9702    16.8457    70.3270 H            1 FAD403   0.0000
@<TRIPOS>BOND
     1    1    2      ar
     2    1    3      ar
     3    1    4       1
     4    1   53       1
     5    4    5       1
     6    5    6       1
     7    6    7       1
     8    6    8       1
     9    7   12       1
    10    8    9       1
    11    8   10       1
    12   10   11       1
    13   10   12       1
    14   12   13       1
    15   13   14       1
    16   13   22       1
    17   14   15       2
    18   15   16       1
    19   16   17      ar
    20   16   22      ar
    21   17   18       1
    22   17   19      ar
    23   19   20      ar
    24   20   21      ar
    25   21   22      ar
    26   23   24       1
    27   23   40       2
    28   24   25       2
    29   24   26       1
    30   26   27       1
    31   27   28       2
    32   27   29       1
    33   29   30       2
    34   29   40       1
    35   30   31       1
    36   31   32      ar
    37   31   38      ar
    38   32   33      ar
    39   33   34       1
    40   33   35      ar
    41   35   36       1
    42   35   37      ar
    43   37   38      ar
    44   38   39       1
    45   39   40       1
    46   39   41       1
    47   41   42       1
    48   42   43       1
    49   42   44       1
    50   44   45       1
    51   44   46       1
    52   46   47       1
    53   46   48       1
    54   48   49       1
    55   49   50       1
    56   50   51      ar
    57   50   52      ar
    58   50   53       1
    59   48   84       1
    60    5   54       1
    61    5   55       1
    62    6   56       1
    63    8   57       1
    64    9   58       1
    65   10   59       1
    66   11   60       1
    67   12   61       1
    68   14   62       1
    69   18   63       1
    70   18   64       1
    71   20   65       1
    72   26   66       1
    73   32   67       1
    74   34   68       1
    75   34   69       1
    76   34   70       1
    77   36   71       1
    78   36   72       1
    79   36   73       1
    80   37   74       1
    81   41   75       1
    82   41   76       1
    83   42   77       1
    84   43   78       1
    85   44   79       1
    86   45   80       1
    87   46   81       1
    88   47   82       1
    89   48   83       1
@<TRIPOS>SUBSTRUCTURE
     1 FAD403      1 GROUP             4 A     FAD     0 **** FAD A 403
