@<TRIPOS>MOLECULE
1ov4_AOX_1_ligand
   51    54     1     0     0
SMALL
NO_CHARGES


@<TRIPOS>ATOM
     1 C1          13.1620   -41.6100    50.1990 C.3          1 AOX287   0.0000
     2 C2          12.5990   -42.9770    50.8250 C.3          1 AOX287   0.0000
     3 C3          11.1500   -42.4480    51.2820 C.3          1 AOX287   0.0000
     4 C4          10.1940   -42.5870    49.9790 C.3          1 AOX287   0.0000
     5 C5          10.6920   -41.2220    49.2420 C.3          1 AOX287   0.0000
     6 C6           9.9700   -40.8750    47.8110 C.3          1 AOX287   0.0000
     7 C7          10.3650   -39.4090    47.3430 C.3          1 AOX287   0.0000
     8 C8          11.9330   -39.4460    46.9720 C.3          1 AOX287   0.0000
     9 C9          12.7680   -39.8780    48.2760 C.3          1 AOX287   0.0000
    10 C10         12.3440   -41.2830    48.9220 C.3          1 AOX287   0.0000
    11 C11         14.3390   -39.9010    47.9420 C.3          1 AOX287   0.0000
    12 C12         14.8520   -38.5230    47.2900 C.3          1 AOX287   0.0000
    13 C13         13.9230   -37.9760    46.1320 C.3          1 AOX287   0.0000
    14 C14         12.4530   -38.0590    46.5000 C.3          1 AOX287   0.0000
    15 C15         11.7560   -37.4620    45.2470 C.3          1 AOX287   0.0000
    16 C16         12.5610   -36.1430    45.1860 C.3          1 AOX287   0.0000
    17 C17         13.9490   -36.4990    45.7600 C.2          1 AOX287   0.0000
    18 C18         14.3720   -38.8120    44.8140 C.3          1 AOX287   0.0000
    19 C19         12.3730   -42.5210    47.8570 C.3          1 AOX287   0.0000
    20 O3          10.4530   -42.8850    52.4960 O.3          1 AOX287   0.0000
    21 O17         14.8440   -35.7000    45.8660 O.2          1 AOX287   0.0000
    22 H1          14.1276   -41.7191    49.9629 H            1 AOX287   0.0000
    23 H2          13.0629   -40.8686    50.8627 H            1 AOX287   0.0000
    24 H3          13.1475   -43.2910    51.6000 H            1 AOX287   0.0000
    25 H4          12.5366   -43.7063    50.1436 H            1 AOX287   0.0000
    26 H5          11.2690   -41.4624    51.4020 H            1 AOX287   0.0000
    27 H6           9.2216   -42.5662    50.2112 H            1 AOX287   0.0000
    28 H7          10.3912   -43.4078    49.4428 H            1 AOX287   0.0000
    29 H8          10.5264   -40.4572    49.8646 H            1 AOX287   0.0000
    30 H9           8.9774   -40.9318    47.9187 H            1 AOX287   0.0000
    31 H10         10.2687   -41.5344    47.1211 H            1 AOX287   0.0000
    32 H11         10.2014   -38.7557    48.0822 H            1 AOX287   0.0000
    33 H12          9.8276   -39.1469    46.5415 H            1 AOX287   0.0000
    34 H13         12.0839   -40.1181    46.2471 H            1 AOX287   0.0000
    35 H14         12.6212   -39.1740    48.9708 H            1 AOX287   0.0000
    36 H15         14.5192   -40.6460    47.2997 H            1 AOX287   0.0000
    37 H16         14.8445   -40.0621    48.7897 H            1 AOX287   0.0000
    38 H17         15.7667   -38.6736    46.9151 H            1 AOX287   0.0000
    39 H18         14.8969   -37.8313    48.0108 H            1 AOX287   0.0000
    40 H19         12.3025   -37.4179    47.2526 H            1 AOX287   0.0000
    41 H20         10.7788   -37.3064    45.3916 H            1 AOX287   0.0000
    42 H21         11.8866   -38.0268    44.4322 H            1 AOX287   0.0000
    43 H22         12.1215   -35.4364    45.7406 H            1 AOX287   0.0000
    44 H23         12.6420   -35.8234    44.2419 H            1 AOX287   0.0000
    45 H24         13.8235   -38.5193    44.0308 H            1 AOX287   0.0000
    46 H25         15.3393   -38.6427    44.6254 H            1 AOX287   0.0000
    47 H26         14.2296   -39.7887    44.9743 H            1 AOX287   0.0000
    48 H27         11.8378   -42.2775    47.0482 H            1 AOX287   0.0000
    49 H28         13.3179   -42.7071    47.5878 H            1 AOX287   0.0000
    50 H29         11.9811   -43.3364    48.2830 H            1 AOX287   0.0000
    51 H30          9.5722   -42.4160    52.5618 H            1 AOX287   0.0000
@<TRIPOS>BOND
     1    1    2       1
     2    1   10       1
     3    2    3       1
     4    3    4       1
     5    3   20       1
     6    4    5       1
     7    5    6       1
     8    5   10       1
     9    6    7       1
    10    7    8       1
    11    8    9       1
    12    8   14       1
    13    9   10       1
    14    9   11       1
    15   10   19       1
    16   11   12       1
    17   12   13       1
    18   13   14       1
    19   13   17       1
    20   13   18       1
    21   14   15       1
    22   15   16       1
    23   16   17       1
    24   17   21       2
    25    1   22       1
    26    1   23       1
    27    2   24       1
    28    2   25       1
    29    3   26       1
    30    4   27       1
    31    4   28       1
    32    5   29       1
    33    6   30       1
    34    6   31       1
    35    7   32       1
    36    7   33       1
    37    8   34       1
    38    9   35       1
    39   11   36       1
    40   11   37       1
    41   12   38       1
    42   12   39       1
    43   14   40       1
    44   15   41       1
    45   15   42       1
    46   16   43       1
    47   16   44       1
    48   18   45       1
    49   18   46       1
    50   18   47       1
    51   19   48       1
    52   19   49       1
    53   19   50       1
    54   20   51       1
@<TRIPOS>SUBSTRUCTURE
     1 AOX287      1 GROUP             4 A     AOX     0 **** AOX A 287
