@<TRIPOS>MOLECULE
4mbs_MRV_2_ligand
   79    83     1     0     0
SMALL
NO_CHARGES


@<TRIPOS>ATOM
     1 F1         180.6070   115.0910    17.7180 F            1 MRV1101   0.0000
     2 O1         181.7160   112.6060    21.8210 O.2          1 MRV1101   0.0000
     3 C1         188.6140   108.2570    22.6070 C.3          1 MRV1101   0.0000
     4 N1         190.1250   108.0400    22.6250 N.pl3        1 MRV1101   0.0000
     5 C10        184.9490   110.5220    23.4210 C.3          1 MRV1101   0.0000
     6 C11        190.8430   109.7140    24.4350 C.3          1 MRV1101   0.0000
     7 C12        185.0370   112.0070    23.0730 C.3          1 MRV1101   0.0000
     8 C13        183.8560   112.7280    23.6750 C.3          1 MRV1101   0.0000
     9 C14        190.2500   106.2570    20.7800 C.3          1 MRV1101   0.0000
    10 C15        184.0850   113.1240    25.0020 C.ar         1 MRV1101   0.0000
    11 C16        182.3610   113.6520    21.9310 C.2          1 MRV1101   0.0000
    12 C17        182.0570   114.8610    21.0270 C.3          1 MRV1101   0.0000
    13 C18        181.0790   116.1150    18.4820 C.3          1 MRV1101   0.0000
    14 C19        191.6840   110.9770    24.2050 C.3          1 MRV1101   0.0000
    15 F2         180.9460   117.1770    17.7130 F            1 MRV1101   0.0000
    16 N2         186.2690   109.8690    23.2700 N.4          1 MRV1101   1.0000
    17 C2         186.6350   109.6590    21.8550 C.3          1 MRV1101   0.0000
    18 C20        191.0460   109.1010    25.8130 C.3          1 MRV1101   0.0000
    19 C21        182.8020   114.6680    19.6730 C.3          1 MRV1101   0.0000
    20 C22        180.5230   115.0630    20.7980 C.3          1 MRV1101   0.0000
    21 C23        182.5960   115.8910    18.7600 C.3          1 MRV1101   0.0000
    22 C24        180.2610   116.2690    19.8270 C.3          1 MRV1101   0.0000
    23 C25        183.2060   112.6530    25.9960 C.ar         1 MRV1101   0.0000
    24 C26        185.1980   113.9070    25.3670 C.ar         1 MRV1101   0.0000
    25 C27        183.4080   112.9940    27.3380 C.ar         1 MRV1101   0.0000
    26 C28        185.4100   114.2370    26.7090 C.ar         1 MRV1101   0.0000
    27 C29        184.5130   113.7850    27.6910 C.ar         1 MRV1101   0.0000
    28 C3         186.3540   108.4930    23.8350 C.3          1 MRV1101   0.0000
    29 N3         192.2790   108.1260    23.0220 N.2          1 MRV1101   0.0000
    30 C4         191.0820   108.6390    23.3480 C.2          1 MRV1101   0.0000
    31 N4         192.1270   107.2800    22.1390 N.2          1 MRV1101   0.0000
    32 N5         183.4230   113.8050    22.7690 N.am         1 MRV1101   0.0000
    33 C5         188.1650   109.4660    21.7580 C.3          1 MRV1101   0.0000
    34 C6         187.8330   108.0490    23.9560 C.3          1 MRV1101   0.0000
    35 C7         190.8240   107.1990    21.8490 C.2          1 MRV1101   0.0000
    36 C8         185.8620   108.3890    21.4600 C.3          1 MRV1101   0.0000
    37 C9         185.6610   107.6220    22.7780 C.3          1 MRV1101   0.0000
    38 H1         188.2963   107.4840    22.0579 H            1 MRV1101   0.0000
    39 H2         184.2925   110.0801    22.8097 H            1 MRV1101   0.0000
    40 H3         184.6411   110.4245    24.3674 H            1 MRV1101   0.0000
    41 H4         189.8826   109.9856    24.3731 H            1 MRV1101   0.0000
    42 H5         185.0263   112.1190    22.0793 H            1 MRV1101   0.0000
    43 H6         185.8849   112.3875    23.4422 H            1 MRV1101   0.0000
    44 H7         183.1069   112.0662    23.7039 H            1 MRV1101   0.0000
    45 H8         190.9947   105.7438    20.3533 H            1 MRV1101   0.0000
    46 H9         189.6081   105.6201    21.2069 H            1 MRV1101   0.0000
    47 H10        189.7735   106.7939    20.0838 H            1 MRV1101   0.0000
    48 H11        182.4185   115.6818    21.4693 H            1 MRV1101   0.0000
    49 H12        191.5083   111.3318    23.2867 H            1 MRV1101   0.0000
    50 H13        191.4375   111.6696    24.8828 H            1 MRV1101   0.0000
    51 H14        192.6542   110.7525    24.2956 H            1 MRV1101   0.0000
    52 H15        186.3428   110.4360    21.2974 H            1 MRV1101   0.0000
    53 H16        190.4744   108.2854    25.9025 H            1 MRV1101   0.0000
    54 H17        192.0069   108.8488    25.9274 H            1 MRV1101   0.0000
    55 H18        190.7901   109.7660    26.5146 H            1 MRV1101   0.0000
    56 H19        182.4461   113.8531    19.2156 H            1 MRV1101   0.0000
    57 H20        183.7793   114.5510    19.8497 H            1 MRV1101   0.0000
    58 H21        180.0814   115.2467    21.6762 H            1 MRV1101   0.0000
    59 H22        180.1382   114.2307    20.3990 H            1 MRV1101   0.0000
    60 H23        182.9720   116.7026    19.2072 H            1 MRV1101   0.0000
    61 H24        183.0704   115.7382    17.8931 H            1 MRV1101   0.0000
    62 H25        179.2852   116.3074    19.6118 H            1 MRV1101   0.0000
    63 H26        180.5361   117.1171    20.2799 H            1 MRV1101   0.0000
    64 H27        182.4332   112.0716    25.7415 H            1 MRV1101   0.0000
    65 H28        185.8361   114.2266    24.6665 H            1 MRV1101   0.0000
    66 H29        182.7704   112.6768    28.0401 H            1 MRV1101   0.0000
    67 H30        186.1988   114.7938    26.9693 H            1 MRV1101   0.0000
    68 H31        184.6627   114.0286    28.6493 H            1 MRV1101   0.0000
    69 H32        185.8852   108.4341    24.7164 H            1 MRV1101   0.0000
    70 H33        183.9221   114.6715    22.7693 H            1 MRV1101   0.0000
    71 H34        188.4167   109.3088    20.8030 H            1 MRV1101   0.0000
    72 H35        188.6222   110.2903    22.0919 H            1 MRV1101   0.0000
    73 H36        188.2755   108.5874    24.6732 H            1 MRV1101   0.0000
    74 H37        187.8616   107.0799    24.2011 H            1 MRV1101   0.0000
    75 H38        186.3918   107.8420    20.8119 H            1 MRV1101   0.0000
    76 H39        184.9799   108.6263    21.0530 H            1 MRV1101   0.0000
    77 H40        184.6877   107.5220    22.9845 H            1 MRV1101   0.0000
    78 H41        186.0862   106.7182    22.7300 H            1 MRV1101   0.0000
    79 H42        186.9652   110.4411    23.7035 H            1 MRV1101   0.0000
@<TRIPOS>BOND
     1    1   13       1
     2    2   11       2
     3    3    4       1
     4    3   33       1
     5    3   34       1
     6    4   30       1
     7    4   35       1
     8    5    7       1
     9    5   16       1
    10    6   14       1
    11    6   18       1
    12    6   30       1
    13    7    8       1
    14    8   10       1
    15    8   32       1
    16    9   35       1
    17   10   23      ar
    18   10   24      ar
    19   11   12       1
    20   11   32      am
    21   12   19       1
    22   12   20       1
    23   13   15       1
    24   13   21       1
    25   13   22       1
    26   16   17       1
    27   16   28       1
    28   17   33       1
    29   17   36       1
    30   19   21       1
    31   20   22       1
    32   23   25      ar
    33   24   26      ar
    34   25   27      ar
    35   26   27      ar
    36   28   34       1
    37   28   37       1
    38   29   30       2
    39   29   31       1
    40   31   35       2
    41   36   37       1
    42    3   38       1
    43    5   39       1
    44    5   40       1
    45    6   41       1
    46    7   42       1
    47    7   43       1
    48    8   44       1
    49    9   45       1
    50    9   46       1
    51    9   47       1
    52   12   48       1
    53   14   49       1
    54   14   50       1
    55   14   51       1
    56   17   52       1
    57   18   53       1
    58   18   54       1
    59   18   55       1
    60   19   56       1
    61   19   57       1
    62   20   58       1
    63   20   59       1
    64   21   60       1
    65   21   61       1
    66   22   62       1
    67   22   63       1
    68   23   64       1
    69   24   65       1
    70   25   66       1
    71   26   67       1
    72   27   68       1
    73   28   69       1
    74   32   70       1
    75   33   71       1
    76   33   72       1
    77   34   73       1
    78   34   74       1
    79   36   75       1
    80   36   76       1
    81   37   77       1
    82   37   78       1
    83   16   79       1
@<TRIPOS>SUBSTRUCTURE
     1 MRV1101     1 GROUP             4 B     MRV     0 **** MRV B1101
