@<TRIPOS>MOLECULE
4onj_SFG_2_ligand
   51    53     1     0     0
SMALL
NO_CHARGES


@<TRIPOS>ATOM
     1 N          -34.7490   -60.3210   -25.2920 N.4          1 SFG700   1.0000
     2 CA         -33.9540   -59.4380   -26.1240 C.3          1 SFG700   0.0000
     3 C          -32.6000   -59.2530   -25.5050 C.2          1 SFG700   0.0000
     4 O          -31.9260   -58.2530   -25.8350 O.co2        1 SFG700   0.0000
     5 OXT        -32.1980   -60.1040   -24.6840 O.co2        1 SFG700  -1.0000
     6 CB         -34.6490   -58.0870   -26.2390 C.3          1 SFG700   0.0000
     7 CG         -36.1280   -58.2590   -26.5640 C.3          1 SFG700   0.0000
     8 CD         -36.7570   -56.9310   -26.9680 C.3          1 SFG700   0.0000
     9 NE         -37.5810   -56.4360   -25.8820 N.4          1 SFG700   1.0000
    10 C5'        -37.6190   -57.1330   -28.2080 C.3          1 SFG700   0.0000
    11 C4'        -36.7930   -57.6850   -29.3630 C.3          1 SFG700   0.0000
    12 O4'        -37.5990   -58.5590   -30.1590 O.3          1 SFG700   0.0000
    13 C3'        -36.2890   -56.5680   -30.2630 C.3          1 SFG700   0.0000
    14 O3'        -34.8590   -56.5750   -30.2980 O.3          1 SFG700   0.0000
    15 C2'        -36.8440   -56.8530   -31.6450 C.3          1 SFG700   0.0000
    16 O2'        -35.7720   -57.0430   -32.5730 O.3          1 SFG700   0.0000
    17 C1'        -37.6600   -58.1300   -31.5220 C.3          1 SFG700   0.0000
    18 N9         -39.0700   -57.8610   -31.9000 N.pl3        1 SFG700   0.0000
    19 C8         -39.7680   -56.7510   -31.5970 C.2          1 SFG700   0.0000
    20 N7         -41.0320   -56.8170   -32.0890 N.2          1 SFG700   0.0000
    21 C5         -41.1560   -57.9960   -32.7260 C.ar         1 SFG700   0.0000
    22 C6         -42.2270   -58.7010   -33.4700 C.ar         1 SFG700   0.0000
    23 N6         -43.4500   -58.1420   -33.6340 N.pl3        1 SFG700   0.0000
    24 N1         -41.9410   -59.9200   -33.9780 N.ar         1 SFG700   0.0000
    25 C2         -40.7300   -60.4860   -33.8220 C.ar         1 SFG700   0.0000
    26 N3         -39.7140   -59.9050   -33.1600 N.ar         1 SFG700   0.0000
    27 C4         -39.8600   -58.6810   -32.5990 C.ar         1 SFG700   0.0000
    28 H1         -35.2536   -59.7802   -24.6190 H            1 SFG700   0.0000
    29 H2         -35.3942   -60.8270   -25.8644 H            1 SFG700   0.0000
    30 HA         -33.8525   -59.8393   -27.0343 H            1 SFG700   0.0000
    31 HB1        -34.2140   -57.5564   -26.9665 H            1 SFG700   0.0000
    32 HB2        -34.5597   -57.5985   -25.3710 H            1 SFG700   0.0000
    33 HG1        -36.6010   -58.6127   -25.7571 H            1 SFG700   0.0000
    34 HG2        -36.2236   -58.9088   -27.3180 H            1 SFG700   0.0000
    35 HD         -36.0357   -56.2678   -27.1680 H            1 SFG700   0.0000
    36 HE1        -37.9937   -55.5646   -26.1472 H            1 SFG700   0.0000
    37 HE2        -38.3022   -57.0992   -25.6818 H            1 SFG700   0.0000
    38 H5'1       -38.0137   -56.2549   -28.4785 H            1 SFG700   0.0000
    39 H5'2       -38.3536   -57.7769   -27.9943 H            1 SFG700   0.0000
    40 H4'        -36.0131   -58.1940   -28.9987 H            1 SFG700   0.0000
    41 H3'        -36.6212   -55.6841   -29.9339 H            1 SFG700   0.0000
    42 H15        -34.5386   -57.4532   -30.6530 H            1 SFG700   0.0000
    43 H2'        -37.4283   -56.0985   -31.9437 H            1 SFG700   0.0000
    44 H17        -35.5213   -58.0107   -32.5992 H            1 SFG700   0.0000
    45 H1'        -37.2775   -58.8362   -32.1178 H            1 SFG700   0.0000
    46 H19        -39.4034   -55.9783   -31.0773 H            1 SFG700   0.0000
    47 H20        -44.1603   -58.6324   -34.1389 H            1 SFG700   0.0000
    48 H21        -43.6425   -57.2389   -33.2501 H            1 SFG700   0.0000
    49 H22        -40.5771   -61.3901   -34.2211 H            1 SFG700   0.0000
    50 H23        -34.1473   -60.9646   -24.8190 H            1 SFG700   0.0000
    51 HE3        -37.0152   -56.3029   -25.0682 H            1 SFG700   0.0000
@<TRIPOS>BOND
     1    1    2       1
     2    2    3       1
     3    2    6       1
     4    3    4      ar
     5    3    5      ar
     6    6    7       1
     7    7    8       1
     8    8    9       1
     9    8   10       1
    10   10   11       1
    11   11   12       1
    12   11   13       1
    13   12   17       1
    14   13   14       1
    15   13   15       1
    16   15   16       1
    17   15   17       1
    18   17   18       1
    19   18   19       1
    20   18   27       1
    21   19   20       2
    22   20   21       1
    23   21   22      ar
    24   21   27      ar
    25   22   23       1
    26   22   24      ar
    27   24   25      ar
    28   25   26      ar
    29   26   27      ar
    30    1   28       1
    31    1   29       1
    32    2   30       1
    33    1   50       1
    34    6   31       1
    35    6   32       1
    36    7   33       1
    37    7   34       1
    38    8   35       1
    39    9   36       1
    40    9   37       1
    41   10   38       1
    42   10   39       1
    43   11   40       1
    44   13   41       1
    45   14   42       1
    46   15   43       1
    47   16   44       1
    48   17   45       1
    49   19   46       1
    50   23   47       1
    51   23   48       1
    52   25   49       1
    53    9   51       1
@<TRIPOS>SUBSTRUCTURE
     1 SFG700      1 GROUP             4 B     SFG     0 **** SFG B 700
