@<TRIPOS>MOLECULE
2euf_LQQ_1_ligand
   63    67     1     0     0
SMALL
NO_CHARGES


@<TRIPOS>ATOM
     1 O01         32.4090    28.5440    60.1410 O.2          1 LQQ401   0.0000
     2 C02         33.0080    27.5190    59.9010 C.2          1 LQQ401   0.0000
     3 C01         34.3120    27.5070    59.1620 C.3          1 LQQ401   0.0000
     4 C03         32.4150    26.2120    60.3390 C.2          1 LQQ401   0.0000
     5 C04         32.6480    25.6900    61.6150 C.2          1 LQQ401   0.0000
     6 C05         33.4290    26.4260    62.6690 C.3          1 LQQ401   0.0000
     7 C06         31.9290    24.4600    62.0050 C.ar         1 LQQ401   0.0000
     8 C07         32.1990    23.7830    63.2720 C.ar         1 LQQ401   0.0000
     9 N01         31.5880    22.6260    63.5420 N.ar         1 LQQ401   0.0000
    10 C08         30.8720    21.9680    62.6070 C.ar         1 LQQ401   0.0000
    11 N02         30.7030    22.5010    61.3540 N.ar         1 LQQ401   0.0000
    12 C09         31.2660    23.6800    60.9670 C.ar         1 LQQ401   0.0000
    13 N03         31.0700    24.2300    59.7410 N.pl3        1 LQQ401   0.0000
    14 C10         30.2950    23.4750    58.7390 C.3          1 LQQ401   0.0000
    15 C11         29.2130    24.2680    58.0150 C.3          1 LQQ401   0.0000
    16 C12         29.2870    23.8720    56.5360 C.3          1 LQQ401   0.0000
    17 C13         30.5060    22.9550    56.3320 C.3          1 LQQ401   0.0000
    18 C14         31.2520    22.9450    57.6650 C.3          1 LQQ401   0.0000
    19 C15         31.6630    25.4930    59.4060 C.2          1 LQQ401   0.0000
    20 O02         31.5220    26.0010    58.2620 O.2          1 LQQ401   0.0000
    21 N04         30.3500    20.7760    63.0170 N.pl3        1 LQQ401   0.0000
    22 C16         29.6660    19.8610    62.2880 C.ar         1 LQQ401   0.0000
    23 N05         29.5140    18.6170    62.8010 N.ar         1 LQQ401   0.0000
    24 C17         28.8440    17.6710    62.1330 C.ar         1 LQQ401   0.0000
    25 C18         28.2800    17.9460    60.8870 C.ar         1 LQQ401   0.0000
    26 C19         28.4240    19.2200    60.3470 C.ar         1 LQQ401   0.0000
    27 C20         29.1170    20.1840    61.0520 C.ar         1 LQQ401   0.0000
    28 N06         27.5710    16.9530    60.1740 N.pl3        1 LQQ401   0.0000
    29 C21         28.4660    15.8000    59.9060 C.3          1 LQQ401   0.0000
    30 C22         27.7120    14.6830    59.1890 C.3          1 LQQ401   0.0000
    31 N07         27.0440    15.1960    58.0030 N.4          1 LQQ401   1.0000
    32 C23         26.3410    16.4760    58.0250 C.3          1 LQQ401   0.0000
    33 C24         26.9860    17.5260    58.9330 C.3          1 LQQ401   0.0000
    34 H1          34.6347    26.5649    59.0707 H            1 LQQ401   0.0000
    35 H2          34.1840    27.9050    58.2536 H            1 LQQ401   0.0000
    36 H3          34.9872    28.0431    59.6687 H            1 LQQ401   0.0000
    37 H4          33.4724    25.8713    63.4999 H            1 LQQ401   0.0000
    38 H5          34.3556    26.6007    62.3361 H            1 LQQ401   0.0000
    39 H6          32.9782    27.2953    62.8717 H            1 LQQ401   0.0000
    40 H7          32.8359    24.1826    63.9313 H            1 LQQ401   0.0000
    41 H8          29.8653    22.6946    59.1933 H            1 LQQ401   0.0000
    42 H9          29.3787    25.2489    58.1173 H            1 LQQ401   0.0000
    43 H10         28.3130    24.0413    58.3873 H            1 LQQ401   0.0000
    44 H11         29.3847    24.6922    55.9724 H            1 LQQ401   0.0000
    45 H12         28.4528    23.3860    56.2755 H            1 LQQ401   0.0000
    46 H13         31.0939    23.3144    55.6073 H            1 LQQ401   0.0000
    47 H14         30.2093    22.0305    56.0928 H            1 LQQ401   0.0000
    48 H15         31.5340    22.0125    57.8904 H            1 LQQ401   0.0000
    49 H16         32.0590    23.5327    57.6080 H            1 LQQ401   0.0000
    50 H17         30.4903    20.5479    63.9805 H            1 LQQ401   0.0000
    51 H18         28.7466    16.7586    62.5305 H            1 LQQ401   0.0000
    52 H19         28.0283    19.4361    59.4544 H            1 LQQ401   0.0000
    53 H20         29.2230    21.1051    60.6775 H            1 LQQ401   0.0000
    54 H21         28.8205    15.4516    60.7737 H            1 LQQ401   0.0000
    55 H22         29.2272    16.1024    59.3323 H            1 LQQ401   0.0000
    56 H23         27.0296    14.2963    59.8093 H            1 LQQ401   0.0000
    57 H24         28.3592    13.9700    58.9192 H            1 LQQ401   0.0000
    58 H25         26.3699    14.5069    57.7369 H            1 LQQ401   0.0000
    59 H26         25.4068    16.3160    58.3438 H            1 LQQ401   0.0000
    60 H27         26.3178    16.8379    57.0931 H            1 LQQ401   0.0000
    61 H28         27.7132    17.9838    58.4216 H            1 LQQ401   0.0000
    62 H29         26.2881    18.1943    59.1906 H            1 LQQ401   0.0000
    63 H30         27.7441    15.2692    57.2927 H            1 LQQ401   0.0000
@<TRIPOS>BOND
     1    1    2       2
     2    2    3       1
     3    2    4       1
     4    4    5       2
     5    4   19       1
     6    5    6       1
     7    5    7       1
     8    7    8      ar
     9    7   12      ar
    10    8    9      ar
    11    9   10      ar
    12   10   11      ar
    13   10   21       1
    14   11   12      ar
    15   12   13       1
    16   13   14       1
    17   13   19       1
    18   14   15       1
    19   14   18       1
    20   15   16       1
    21   16   17       1
    22   17   18       1
    23   19   20       2
    24   21   22       1
    25   22   23      ar
    26   22   27      ar
    27   23   24      ar
    28   24   25      ar
    29   25   26      ar
    30   25   28       1
    31   26   27      ar
    32   28   29       1
    33   28   33       1
    34   29   30       1
    35   30   31       1
    36   31   32       1
    37   32   33       1
    38    3   34       1
    39    3   35       1
    40    3   36       1
    41    6   37       1
    42    6   38       1
    43    6   39       1
    44    8   40       1
    45   14   41       1
    46   15   42       1
    47   15   43       1
    48   16   44       1
    49   16   45       1
    50   17   46       1
    51   17   47       1
    52   18   48       1
    53   18   49       1
    54   21   50       1
    55   24   51       1
    56   26   52       1
    57   27   53       1
    58   29   54       1
    59   29   55       1
    60   30   56       1
    61   30   57       1
    62   31   58       1
    63   32   59       1
    64   32   60       1
    65   33   61       1
    66   33   62       1
    67   31   63       1
@<TRIPOS>SUBSTRUCTURE
     1 LQQ401      1 GROUP             4 B     LQQ     0 **** LQQ B 401
