@<TRIPOS>MOLECULE
4fxf_ATP_2_ligand
   43    45     1     0     0
SMALL
NO_CHARGES


@<TRIPOS>ATOM
     1 PG           0.0720   -26.6280   127.4450 P.3          1 ATP604   0.0000
     2 O1G         -0.2510   -27.8750   126.6650 O.co2        1 ATP604   0.0000
     3 O2G          1.5550   -26.3910   127.6200 O.co2        1 ATP604  -1.0000
     4 O3G         -0.7130   -25.4280   126.9720 O.co2        1 ATP604  -1.0000
     5 PB          -1.0470   -25.8600   129.9750 P.3          1 ATP604   0.0000
     6 O1B         -0.8640   -26.4030   131.3720 O.co2        1 ATP604   0.0000
     7 O2B         -0.4700   -24.4990   129.6610 O.co2        1 ATP604  -1.0000
     8 O3B         -0.4640   -26.9560   128.9380 O.3          1 ATP604   0.0000
     9 PA          -3.4840   -24.8410   128.8120 P.3          1 ATP604   0.0000
    10 O1A         -4.4400   -25.6230   127.9500 O.co2        1 ATP604   0.0000
    11 O2A         -2.5550   -23.8450   128.1650 O.co2        1 ATP604  -1.0000
    12 O3A         -2.6400   -25.9040   129.6900 O.3          1 ATP604   0.0000
    13 O5'         -4.3840   -24.0670   129.8990 O.3          1 ATP604   0.0000
    14 C5'         -3.7990   -23.4230   131.0280 C.3          1 ATP604   0.0000
    15 C4'         -4.4930   -23.8850   132.3060 C.3          1 ATP604   0.0000
    16 O4'         -5.9090   -24.0180   132.1200 O.3          1 ATP604   0.0000
    17 C3'         -4.0060   -25.2510   132.7630 C.3          1 ATP604   0.0000
    18 O3'         -2.8790   -25.1440   133.6350 O.3          1 ATP604   0.0000
    19 C2'         -5.2100   -25.8490   133.4630 C.3          1 ATP604   0.0000
    20 O2'         -5.1700   -25.6020   134.8710 O.3          1 ATP604   0.0000
    21 C1'         -6.4120   -25.1510   132.8440 C.3          1 ATP604   0.0000
    22 N9          -7.0830   -26.1250   131.9410 N.pl3        1 ATP604   0.0000
    23 C8          -7.0350   -26.1280   130.5930 C.2          1 ATP604   0.0000
    24 N7          -7.7490   -27.1590   130.0700 N.2          1 ATP604   0.0000
    25 C5          -8.2670   -27.8500   131.1020 C.ar         1 ATP604   0.0000
    26 C6          -9.1180   -29.0570   131.2670 C.ar         1 ATP604   0.0000
    27 N6          -9.5720   -29.7480   130.1920 N.pl3        1 ATP604   0.0000
    28 N1          -9.4280   -29.4450   132.5290 N.ar         1 ATP604   0.0000
    29 C2          -8.9870   -28.7730   133.6130 C.ar         1 ATP604   0.0000
    30 N3          -8.2120   -27.6730   133.5380 N.ar         1 ATP604   0.0000
    31 C4          -7.8250   -27.1690   132.3350 C.ar         1 ATP604   0.0000
    32 H5'1        -3.9010   -22.4326   130.9346 H            1 ATP604   0.0000
    33 H5'2        -2.8275   -23.6550   131.0757 H            1 ATP604   0.0000
    34 H4'         -4.3203   -23.2178   133.0306 H            1 ATP604   0.0000
    35 H3'         -3.7663   -25.8078   131.9677 H            1 ATP604   0.0000
    36 H5          -2.0998   -25.6252   133.2333 H            1 ATP604   0.0000
    37 H2'         -5.2559   -26.8325   133.2878 H            1 ATP604   0.0000
    38 H7          -5.1574   -26.4731   135.3620 H            1 ATP604   0.0000
    39 H1'         -7.0435   -24.8513   133.5591 H            1 ATP604   0.0000
    40 H9          -6.5361   -25.4553   130.0466 H            1 ATP604   0.0000
    41 H10        -10.1436   -30.5579   130.3233 H            1 ATP604   0.0000
    42 H11         -9.3351   -29.4476   129.2681 H            1 ATP604   0.0000
    43 H12         -9.2486   -29.1083   134.5180 H            1 ATP604   0.0000
@<TRIPOS>BOND
     1    1    2      ar
     2    1    3      ar
     3    1    4      ar
     4    1    8       1
     5    5    6      ar
     6    5    7      ar
     7    5    8       1
     8    5   12       1
     9    9   10      ar
    10    9   11      ar
    11    9   12       1
    12    9   13       1
    13   13   14       1
    14   14   15       1
    15   15   16       1
    16   15   17       1
    17   16   21       1
    18   17   18       1
    19   17   19       1
    20   19   20       1
    21   19   21       1
    22   21   22       1
    23   22   23       1
    24   22   31       1
    25   23   24       2
    26   24   25       1
    27   25   26      ar
    28   25   31      ar
    29   26   27       1
    30   26   28      ar
    31   28   29      ar
    32   29   30      ar
    33   30   31      ar
    34   29   43       1
    35   27   42       1
    36   27   41       1
    37   23   40       1
    38   14   32       1
    39   14   33       1
    40   15   34       1
    41   17   35       1
    42   18   36       1
    43   19   37       1
    44   20   38       1
    45   21   39       1
@<TRIPOS>SUBSTRUCTURE
     1 ATP604      1 GROUP             4 D     ATP     0 **** ATP D 604
