@<TRIPOS>MOLECULE
1ibs_ABM_2_ligand
   38    40     1     0     0
SMALL
NO_CHARGES


@<TRIPOS>ATOM
     1 P           27.9260    49.4980    49.3140 P.3          1 ABM1010   0.0000
     2 CM          26.9350    48.1750    50.0960 C.3          1 ABM1010   0.0000
     3 O2P         29.0740    48.7110    48.7190 O.co2        1 ABM1010   0.0000
     4 O3P         28.1270    50.5440    50.4470 O.co2        1 ABM1010  -1.0000
     5 O5'         26.9510    50.0920    48.1510 O.3          1 ABM1010   0.0000
     6 C5'         25.5080    49.8180    48.1620 C.3          1 ABM1010   0.0000
     7 C4'         25.0750    48.7570    47.1220 C.3          1 ABM1010   0.0000
     8 O4'         24.5140    47.5460    47.7330 O.3          1 ABM1010   0.0000
     9 C3'         24.0130    49.2850    46.1160 C.3          1 ABM1010   0.0000
    10 O3'         24.5420    49.2370    44.7740 O.3          1 ABM1010   0.0000
    11 C2'         22.8160    48.3210    46.1870 C.3          1 ABM1010   0.0000
    12 O2'         22.3580    47.9450    44.8610 O.3          1 ABM1010   0.0000
    13 C1'         23.3670    47.1060    46.8970 C.3          1 ABM1010   0.0000
    14 N9          22.3210    46.3940    47.6350 N.pl3        1 ABM1010   0.0000
    15 C8          21.1050    46.8470    48.0900 C.2          1 ABM1010   0.0000
    16 N7          20.4290    45.9400    48.7850 N.2          1 ABM1010   0.0000
    17 C5          21.3450    44.8780    48.9090 C.ar         1 ABM1010   0.0000
    18 C6          21.3240    43.6460    49.6330 C.ar         1 ABM1010   0.0000
    19 N6          20.2880    43.2150    50.3920 N.pl3        1 ABM1010   0.0000
    20 N1          22.3780    42.8220    49.4320 N.ar         1 ABM1010   0.0000
    21 C2          23.4560    43.2800    48.7650 C.ar         1 ABM1010   0.0000
    22 N3          23.6280    44.4400    48.1340 N.ar         1 ABM1010   0.0000
    23 C4          22.4800    45.1480    48.1660 C.ar         1 ABM1010   0.0000
    24 HM1         26.1300    48.5758    50.5335 H            1 ABM1010   0.0000
    25 HM2         26.6440    47.5200    49.3986 H            1 ABM1010   0.0000
    26 HM3         27.4891    47.7057    50.7836 H            1 ABM1010   0.0000
    27 H5'1        25.0222    50.6700    47.9665 H            1 ABM1010   0.0000
    28 H5'2        25.2545    49.4911    49.0724 H            1 ABM1010   0.0000
    29 H4'         25.8854    48.4902    46.6005 H            1 ABM1010   0.0000
    30 H3'         23.7328    50.2152    46.3529 H            1 ABM1010   0.0000
    31 H8          23.9667    48.6447    44.2099 H            1 ABM1010   0.0000
    32 H2'         22.0694    48.7269    46.7141 H            1 ABM1010   0.0000
    33 H10         21.4050    48.2251    44.7456 H            1 ABM1010   0.0000
    34 H1'         23.7223    46.4835    46.1997 H            1 ABM1010   0.0000
    35 H12         20.7630    47.7702    47.9144 H            1 ABM1010   0.0000
    36 H13         20.3488    42.3386    50.8698 H            1 ABM1010   0.0000
    37 H14         19.4624    43.7732    50.4745 H            1 ABM1010   0.0000
    38 H15         24.2396    42.6592    48.7404 H            1 ABM1010   0.0000
@<TRIPOS>BOND
     1    1    2       1
     2    1    3      ar
     3    1    4      ar
     4    1    5       1
     5    5    6       1
     6    6    7       1
     7    7    8       1
     8    7    9       1
     9    8   13       1
    10    9   10       1
    11    9   11       1
    12   11   12       1
    13   11   13       1
    14   13   14       1
    15   14   15       1
    16   14   23       1
    17   15   16       2
    18   16   17       1
    19   17   18      ar
    20   17   23      ar
    21   18   19       1
    22   18   20      ar
    23   20   21      ar
    24   21   22      ar
    25   22   23      ar
    26    2   24       1
    27    2   25       1
    28    2   26       1
    29   21   38       1
    30    6   27       1
    31    6   28       1
    32    7   29       1
    33    9   30       1
    34   10   31       1
    35   11   32       1
    36   12   33       1
    37   13   34       1
    38   15   35       1
    39   19   36       1
    40   19   37       1
@<TRIPOS>SUBSTRUCTURE
     1 ABM1010     1 GROUP             4 B     ABM     0 **** ABM B1010
