@<TRIPOS>MOLECULE
3q5k_D1U_1_ligand
   53    55     1     0     0
SMALL
NO_CHARGES


@<TRIPOS>ATOM
     1 CAA         -9.9040    -2.9970     9.9310 C.3          1 D1U214   0.0000
     2 CAB        -15.6290    -5.0540    18.8330 C.3          1 D1U214   0.0000
     3 CAC        -14.2890    -3.0760    18.0630 C.3          1 D1U214   0.0000
     4 NAD        -12.5070    -8.3580    11.5670 N.am         1 D1U214   0.0000
     5 OAE        -10.7550    -7.0830    12.1540 O.2          1 D1U214   0.0000
     6 OAF        -17.2490    -0.7740    17.2980 O.2          1 D1U214   0.0000
     7 FAG        -16.2270     0.8950    15.1510 F            1 D1U214   0.0000
     8 FAH        -16.0730     0.3580    13.1330 F            1 D1U214   0.0000
     9 FAI        -17.9820     0.1030    14.1360 F            1 D1U214   0.0000
    10 CAJ        -15.0920    -5.4910    13.4930 C.ar         1 D1U214   0.0000
    11 CAK        -14.2280    -6.4760    13.0080 C.ar         1 D1U214   0.0000
    12 CAL        -13.3140    -3.8760    13.2610 C.ar         1 D1U214   0.0000
    13 CAM        -10.5620    -3.3030    12.8800 C.3          1 D1U214   0.0000
    14 CAN         -9.0600    -3.3440    12.5830 C.3          1 D1U214   0.0000
    15 CAO        -16.8160    -3.0060    18.0380 C.3          1 D1U214   0.0000
    16 CAP        -15.5960    -4.4440    16.4170 C.3          1 D1U214   0.0000
    17 NAQ        -15.5770    -2.1160    13.6440 N.2          1 D1U214   0.0000
    18 NAR        -11.2030    -4.5530    12.4180 N.pl3        1 D1U214   0.0000
    19 SAS         -8.6800    -3.8880    10.8760 S.3          1 D1U214   0.0000
    20 CAT        -11.9650    -7.2520    12.0820 C.2          1 D1U214   0.0000
    21 CAU        -16.8460    -1.8890    16.9820 C.2          1 D1U214   0.0000
    22 CAV        -14.6350    -4.1760    13.5730 C.ar         1 D1U214   0.0000
    23 CAW        -12.4610    -4.8520    12.7530 C.ar         1 D1U214   0.0000
    24 CAX        -12.9240    -6.1590    12.6260 C.ar         1 D1U214   0.0000
    25 CAY        -15.7430    -3.2880    15.4220 C.2          1 D1U214   0.0000
    26 CAZ        -16.2080    -1.3700    14.5400 C.2          1 D1U214   0.0000
    27 CBA        -16.3590    -2.0910    15.7040 C.2          1 D1U214   0.0000
    28 NBB        -15.3550    -3.2220    14.1470 N.pl3        1 D1U214   0.0000
    29 CBC        -15.5780    -3.8950    17.8450 C.3          1 D1U214   0.0000
    30 CBD        -16.6630     0.0410    14.2510 C.3          1 D1U214   0.0000
    31 HAA1        -9.7988    -3.2141     8.9605 H            1 D1U214   0.0000
    32 HAA2       -10.8187    -3.2634    10.2350 H            1 D1U214   0.0000
    33 HAA3        -9.7803    -2.0142    10.0680 H            1 D1U214   0.0000
    34 HAB1       -16.4665    -5.5804    18.6863 H            1 D1U214   0.0000
    35 HAB2       -14.8348    -5.6456    18.6941 H            1 D1U214   0.0000
    36 HAB3       -15.6192    -4.6966    19.7669 H            1 D1U214   0.0000
    37 HAC1       -14.2619    -2.3175    17.4119 H            1 D1U214   0.0000
    38 HAC2       -14.2770    -2.7153    18.9956 H            1 D1U214   0.0000
    39 HAC3       -13.4926    -3.6643    17.9228 H            1 D1U214   0.0000
    40 HAD1       -13.5014    -8.4556    11.5272 H            1 D1U214   0.0000
    41 HAD2       -11.9186    -9.0888    11.2211 H            1 D1U214   0.0000
    42 HAJ        -16.0216    -5.7249    13.7777 H            1 D1U214   0.0000
    43 HAK        -14.5483    -7.4204    12.9337 H            1 D1U214   0.0000
    44 HAL        -12.9720    -2.9471    13.4033 H            1 D1U214   0.0000
    45 HAM1       -10.9725    -2.5249    12.4045 H            1 D1U214   0.0000
    46 HAM2       -10.7022    -3.2034    13.8651 H            1 D1U214   0.0000
    47 HAN1        -8.6262    -3.9780    13.2231 H            1 D1U214   0.0000
    48 HAN2        -8.6841    -2.4269    12.7159 H            1 D1U214   0.0000
    49 HAO1       -17.6401    -3.5654    17.9489 H            1 D1U214   0.0000
    50 HAO2       -16.7882    -2.5963    18.9498 H            1 D1U214   0.0000
    51 HAP1       -14.7413    -4.9309    16.2371 H            1 D1U214   0.0000
    52 HAP2       -16.3664    -5.0729    16.3122 H            1 D1U214   0.0000
    53 HAR        -10.6847    -5.1867    11.8437 H            1 D1U214   0.0000
@<TRIPOS>BOND
     1    1   19       1
     2    2   29       1
     3    3   29       1
     4    4   20      am
     5    5   20       2
     6    6   21       2
     7    7   30       1
     8    8   30       1
     9    9   30       1
    10   10   11      ar
    11   10   22      ar
    12   11   24      ar
    13   12   22      ar
    14   12   23      ar
    15   13   14       1
    16   13   18       1
    17   14   19       1
    18   15   21       1
    19   15   29       1
    20   16   25       1
    21   16   29       1
    22   17   26       2
    23   17   28       1
    24   18   23       1
    25   20   24       1
    26   21   27       1
    27   22   28       1
    28   23   24      ar
    29   25   27       2
    30   25   28       1
    31   26   27       1
    32   26   30       1
    33    1   31       1
    34    1   32       1
    35    1   33       1
    36    2   34       1
    37    2   35       1
    38    2   36       1
    39    3   37       1
    40    3   38       1
    41    3   39       1
    42    4   40       1
    43    4   41       1
    44   10   42       1
    45   11   43       1
    46   12   44       1
    47   13   45       1
    48   13   46       1
    49   14   47       1
    50   14   48       1
    51   15   49       1
    52   15   50       1
    53   16   51       1
    54   16   52       1
    55   18   53       1
@<TRIPOS>SUBSTRUCTURE
     1 D1U214      1 GROUP             4 A     D1U     0 **** D1U A 214
