@<TRIPOS>MOLECULE
3nt5_NAI_2_ligand
   71    75     1     0     0
SMALL
NO_CHARGES


@<TRIPOS>ATOM
     1 PA         -30.2830    47.1990    19.0240 P.3          1 NAI400   0.0000
     2 O1A        -30.0240    46.5840    20.4130 O.co2        1 NAI400   0.0000
     3 O2A        -29.0140    47.8750    18.4810 O.co2        1 NAI400  -1.0000
     4 O5B        -31.4150    48.1810    19.3010 O.3          1 NAI400   0.0000
     5 C5B        -31.4450    48.8770    20.5390 C.3          1 NAI400   0.0000
     6 C4B        -31.2320    50.3450    20.1910 C.3          1 NAI400   0.0000
     7 O4B        -32.0770    51.1930    20.9590 O.3          1 NAI400   0.0000
     8 C3B        -29.8160    50.8470    20.5050 C.3          1 NAI400   0.0000
     9 O3B        -29.1060    51.2490    19.3300 O.3          1 NAI400   0.0000
    10 C2B        -29.9660    51.9500    21.5770 C.3          1 NAI400   0.0000
    11 O2B        -29.7960    53.2740    21.0870 O.3          1 NAI400   0.0000
    12 C1B        -31.3650    51.6680    22.1100 C.3          1 NAI400   0.0000
    13 N9A        -32.1130    52.5580    23.0590 N.pl3        1 NAI400   0.0000
    14 C8A        -32.8620    52.0890    24.0990 C.2          1 NAI400   0.0000
    15 N7A        -33.5850    53.0850    24.6810 N.2          1 NAI400   0.0000
    16 C5A        -33.3100    54.2230    24.0210 C.ar         1 NAI400   0.0000
    17 C6A        -33.7270    55.6480    24.1420 C.ar         1 NAI400   0.0000
    18 N6A        -34.6340    56.0330    25.1340 N.pl3        1 NAI400   0.0000
    19 N1A        -33.2070    56.5340    23.2710 N.ar         1 NAI400   0.0000
    20 C2A        -32.3280    56.1480    22.3120 C.ar         1 NAI400   0.0000
    21 N3A        -31.8900    54.8760    22.1380 N.ar         1 NAI400   0.0000
    22 C4A        -32.3370    53.8860    22.9410 C.ar         1 NAI400   0.0000
    23 O3         -30.7620    46.1290    18.0170 O.3          1 NAI400   0.0000
    24 PN         -32.1920    45.7120    17.6950 P.3          1 NAI400   0.0000
    25 O1N        -32.2540    44.6740    16.5900 O.co2        1 NAI400   0.0000
    26 O2N        -32.9450    46.9880    17.2720 O.co2        1 NAI400  -1.0000
    27 O5D        -32.6770    45.0730    18.9990 O.3          1 NAI400   0.0000
    28 C5D        -33.4630    45.8540    19.8970 C.3          1 NAI400   0.0000
    29 C4D        -34.9490    45.5720    19.7050 C.3          1 NAI400   0.0000
    30 O4D        -35.1580    44.7280    18.5600 O.3          1 NAI400   0.0000
    31 C3D        -35.5500    44.7740    20.8660 C.3          1 NAI400   0.0000
    32 O3D        -36.9090    45.1780    21.0820 O.3          1 NAI400   0.0000
    33 C2D        -35.5060    43.3310    20.3720 C.3          1 NAI400   0.0000
    34 O2D        -36.3420    42.5000    21.1890 O.3          1 NAI400   0.0000
    35 C1D        -35.9340    43.5680    18.9030 C.3          1 NAI400   0.0000
    36 N1N        -35.9190    42.4460    17.9100 N.pl3        1 NAI400   0.0000
    37 C2N        -34.8510    41.6150    17.7390 C.2          1 NAI400   0.0000
    38 C3N        -35.0750    40.2670    17.3510 C.2          1 NAI400   0.0000
    39 C7N        -33.9610    39.2980    16.9760 C.2          1 NAI400   0.0000
    40 O7N        -34.2790    38.1290    16.8000 O.2          1 NAI400   0.0000
    41 N7N        -32.7300    39.6920    16.5870 N.am         1 NAI400   0.0000
    42 C4N        -36.3950    39.8610    17.0590 C.3          1 NAI400   0.0000
    43 C5N        -37.3890    40.8290    16.8920 C.2          1 NAI400   0.0000
    44 C6N        -37.1090    42.1470    17.3020 C.2          1 NAI400   0.0000
    45 H5B1       -30.7150    48.5515    21.1399 H            1 NAI400   0.0000
    46 H5B2       -32.3288    48.7500    20.9892 H            1 NAI400   0.0000
    47 H4B        -31.4223    50.4837    19.2191 H            1 NAI400   0.0000
    48 H3B        -29.3114    50.0894    20.9190 H            1 NAI400   0.0000
    49 H5         -29.2733    52.2193    19.1551 H            1 NAI400   0.0000
    50 H2B        -29.3018    51.7861    22.3063 H            1 NAI400   0.0000
    51 H7         -30.6320    53.7988    21.2476 H            1 NAI400   0.0000
    52 H1B        -31.2327    50.8348    22.6469 H            1 NAI400   0.0000
    53 H8A        -32.8778    51.1343    24.3961 H            1 NAI400   0.0000
    54 H6A1       -34.9121    56.9903    25.2129 H            1 NAI400   0.0000
    55 H6A2       -35.0045    55.3511    25.7646 H            1 NAI400   0.0000
    56 H2A        -31.9791    56.8496    21.6907 H            1 NAI400   0.0000
    57 H5D1       -33.2889    46.8238    19.7260 H            1 NAI400   0.0000
    58 H5D2       -33.2059    45.6299    20.8370 H            1 NAI400   0.0000
    59 H4D        -35.4464    46.4318    19.5894 H            1 NAI400   0.0000
    60 H3D        -35.0060    44.8854    21.6976 H            1 NAI400   0.0000
    61 H17        -37.4328    44.4064    21.4430 H            1 NAI400   0.0000
    62 H2D        -34.5651    42.9935    20.3991 H            1 NAI400   0.0000
    63 H19        -35.7880    41.7826    21.6113 H            1 NAI400   0.0000
    64 H1D        -36.8832    43.8799    18.9446 H            1 NAI400   0.0000
    65 H2N        -33.9206    41.9510    17.8852 H            1 NAI400   0.0000
    66 H7N1       -32.0375    39.0098    16.3525 H            1 NAI400   0.0000
    67 H7N2       -32.5105    40.6661    16.5333 H            1 NAI400   0.0000
    68 H4N1       -36.6895    39.2671    17.8077 H            1 NAI400   0.0000
    69 H4N2       -36.3566    39.3334    16.2104 H            1 NAI400   0.0000
    70 H5N        -38.2746    40.5924    16.4924 H            1 NAI400   0.0000
    71 H6N        -37.7835    42.8691    17.1481 H            1 NAI400   0.0000
@<TRIPOS>BOND
     1    1    2      ar
     2    1    3      ar
     3    1    4       1
     4    1   23       1
     5    4    5       1
     6    5    6       1
     7    6    7       1
     8    6    8       1
     9    7   12       1
    10    8    9       1
    11    8   10       1
    12   10   11       1
    13   10   12       1
    14   12   13       1
    15   13   14       1
    16   13   22       1
    17   14   15       2
    18   15   16       1
    19   16   17      ar
    20   16   22      ar
    21   17   18       1
    22   17   19      ar
    23   19   20      ar
    24   20   21      ar
    25   21   22      ar
    26   23   24       1
    27   24   25      ar
    28   24   26      ar
    29   24   27       1
    30   27   28       1
    31   28   29       1
    32   29   30       1
    33   29   31       1
    34   30   35       1
    35   31   32       1
    36   31   33       1
    37   33   34       1
    38   33   35       1
    39   35   36       1
    40   36   37       1
    41   36   44       1
    42   37   38       2
    43   38   39       1
    44   38   42       1
    45   39   40       2
    46   39   41      am
    47   42   43       1
    48   43   44       2
    49   44   71       1
    50    5   45       1
    51    5   46       1
    52    6   47       1
    53    8   48       1
    54    9   49       1
    55   10   50       1
    56   11   51       1
    57   12   52       1
    58   14   53       1
    59   18   54       1
    60   18   55       1
    61   20   56       1
    62   43   70       1
    63   28   57       1
    64   28   58       1
    65   29   59       1
    66   31   60       1
    67   32   61       1
    68   33   62       1
    69   34   63       1
    70   35   64       1
    71   37   65       1
    72   41   66       1
    73   41   67       1
    74   42   68       1
    75   42   69       1
@<TRIPOS>SUBSTRUCTURE
     1 NAI400      1 GROUP             4 B     NAI     0 **** NAI B 400
