@<TRIPOS>MOLECULE
5bsr_COA_1_ligand
   80    82     1     0     0
SMALL
NO_CHARGES


@<TRIPOS>ATOM
     1 N1A         71.1230    16.6720    32.1330 N.ar         1 COA601   0.0000
     2 C2A         72.3440    16.9730    31.6560 C.ar         1 COA601   0.0000
     3 N3A         72.6460    16.7720    30.3620 N.ar         1 COA601   0.0000
     4 C4A         71.7210    16.2580    29.5050 C.ar         1 COA601   0.0000
     5 C5A         70.4550    15.9410    29.9760 C.ar         1 COA601   0.0000
     6 C6A         70.1670    16.1590    31.3200 C.ar         1 COA601   0.0000
     7 N6A         68.9420    15.8590    31.8120 N.pl3        1 COA601   0.0000
     8 N7A         69.7450    15.4560    28.9370 N.2          1 COA601   0.0000
     9 C8A         70.5490    15.4730    27.8470 C.2          1 COA601   0.0000
    10 N9A         71.7490    15.9650    28.1970 N.pl3        1 COA601   0.0000
    11 C1B         72.9220    16.1480    27.3050 C.3          1 COA601   0.0000
    12 C2B         73.7150    14.8520    27.2850 C.3          1 COA601   0.0000
    13 O2B         75.1110    15.1290    27.4520 O.3          1 COA601   0.0000
    14 C3B         73.4210    14.3080    25.9030 C.3          1 COA601   0.0000
    15 O3B         74.4440    13.4630    25.3970 O.3          1 COA601   0.0000
    16 P3B         74.1440    11.8840    25.2810 P.3          1 COA601   0.0000
    17 O7A         72.7800    11.7680    24.6340 O.co2        1 COA601   0.0000
    18 O8A         75.2680    11.3950    24.4010 O.co2        1 COA601  -1.0000
    19 O9A         74.1910    11.4210    26.7210 O.co2        1 COA601  -1.0000
    20 C4B         73.2510    15.5620    25.0740 C.3          1 COA601   0.0000
    21 O4B         72.5130    16.4110    25.9520 O.3          1 COA601   0.0000
    22 C5B         72.5220    15.3060    23.7640 C.3          1 COA601   0.0000
    23 O5B         72.4940    16.5370    23.0460 O.3          1 COA601   0.0000
    24 P1A         73.1070    16.6870    21.5640 P.3          1 COA601   0.0000
    25 O1A         74.5710    16.3350    21.5450 O.co2        1 COA601   0.0000
    26 O2A         72.6800    18.0540    21.0760 O.co2        1 COA601  -1.0000
    27 O3A         72.3820    15.5150    20.7150 O.3          1 COA601   0.0000
    28 P2A         70.8090    15.3070    20.4080 P.3          1 COA601   0.0000
    29 O4A         70.7210    13.9510    19.7540 O.co2        1 COA601   0.0000
    30 O5A         69.9420    15.6190    21.6080 O.co2        1 COA601  -1.0000
    31 O6A         70.5100    16.4370    19.2990 O.3          1 COA601   0.0000
    32 CBP         70.8810    17.7060    17.2600 C.3          1 COA601   0.0000
    33 CCP         71.4710    16.7570    18.2930 C.3          1 COA601   0.0000
    34 CDP         71.7700    18.2870    16.1760 C.3          1 COA601   0.0000
    35 CEP         69.3840    17.9780    17.2890 C.3          1 COA601   0.0000
    36 CAP         71.1890    18.9260    18.2090 C.3          1 COA601   0.0000
    37 OAP         72.5760    18.9900    18.6190 O.3          1 COA601   0.0000
    38 C9P         70.7860    20.3170    17.7360 C.2          1 COA601   0.0000
    39 O9P         69.6510    20.7290    17.9020 O.2          1 COA601   0.0000
    40 N8P         71.7170    21.0880    17.1690 N.am         1 COA601   0.0000
    41 C7P         71.5590    22.4310    16.6170 C.3          1 COA601   0.0000
    42 C6P         71.5660    23.4100    17.7780 C.3          1 COA601   0.0000
    43 C5P         71.1560    24.7610    17.2540 C.2          1 COA601   0.0000
    44 O5P         70.0660    24.9450    16.7270 O.2          1 COA601   0.0000
    45 N4P         72.0890    25.6940    17.4070 N.am         1 COA601   0.0000
    46 C3P         72.1010    27.0990    17.0530 C.3          1 COA601   0.0000
    47 C2P         71.7350    27.2410    15.5870 C.3          1 COA601   0.0000
    48 S1P         72.8990    26.3110    14.5770 S.3          1 COA601   0.0000
    49 H2A         73.0355    17.3509    32.2717 H            1 COA601   0.0000
    50 H6A1        68.2398    15.4808    31.2088 H            1 COA601   0.0000
    51 H6A2        68.7393    16.0156    32.7786 H            1 COA601   0.0000
    52 H8A         70.2910    15.1685    26.9301 H            1 COA601   0.0000
    53 H1B         73.4951    16.8953    27.6413 H            1 COA601   0.0000
    54 H2B         73.3893    14.2240    27.9918 H            1 COA601   0.0000
    55 H7          75.6251    14.2714    27.4377 H            1 COA601   0.0000
    56 H3B         72.5568    13.8052    25.9227 H            1 COA601   0.0000
    57 H4B         74.1463    15.9666    24.8878 H            1 COA601   0.0000
    58 H5B1        71.5892    14.9952    23.9467 H            1 COA601   0.0000
    59 H5B2        73.0068    14.6111    23.2329 H            1 COA601   0.0000
    60 HCP1        71.7600    15.9153    17.8369 H            1 COA601   0.0000
    61 HCP2        72.2623    17.1919    18.7228 H            1 COA601   0.0000
    62 HDP1        71.2282    18.8855    15.5858 H            1 COA601   0.0000
    63 HDP2        72.5083    18.8137    16.5972 H            1 COA601   0.0000
    64 HDP3        72.1592    17.5446    15.6307 H            1 COA601   0.0000
    65 HEP1        69.1468    18.6156    16.5560 H            1 COA601   0.0000
    66 HEP2        68.8868    17.1202    17.1586 H            1 COA601   0.0000
    67 HEP3        69.1347    18.3769    18.1715 H            1 COA601   0.0000
    68 HAP         70.6653    18.7601    19.0446 H            1 COA601   0.0000
    69 H21         72.6321    18.9296    19.6156 H            1 COA601   0.0000
    70 H8P         72.6361    20.6977    17.1157 H            1 COA601   0.0000
    71 H7P1        70.6928    22.4961    16.1216 H            1 COA601   0.0000
    72 H7P2        72.3149    22.6348    15.9949 H            1 COA601   0.0000
    73 H6P1        72.4841    23.4633    18.1708 H            1 COA601   0.0000
    74 H6P2        70.9203    23.1084    18.4795 H            1 COA601   0.0000
    75 H4P         72.9292    25.3705    17.8422 H            1 COA601   0.0000
    76 H3P1        73.0138    27.4765    17.2090 H            1 COA601   0.0000
    77 H3P2        71.4361    27.5920    17.6141 H            1 COA601   0.0000
    78 H2P1        71.7681    28.2064    15.3283 H            1 COA601   0.0000
    79 H2P2        70.8111    26.8879    15.4395 H            1 COA601   0.0000
    80 H1P         73.5749    25.8703    15.1677 H            1 COA601   0.0000
@<TRIPOS>BOND
     1    1    2      ar
     2    1    6      ar
     3    2    3      ar
     4    3    4      ar
     5    4    5      ar
     6    4   10       1
     7    5    6      ar
     8    5    8       1
     9    6    7       1
    10    8    9       2
    11    9   10       1
    12   10   11       1
    13   11   12       1
    14   11   21       1
    15   12   13       1
    16   12   14       1
    17   14   15       1
    18   14   20       1
    19   15   16       1
    20   16   17      ar
    21   16   18      ar
    22   16   19      ar
    23   20   21       1
    24   20   22       1
    25   22   23       1
    26   23   24       1
    27   24   25      ar
    28   24   26      ar
    29   24   27       1
    30   27   28       1
    31   28   29      ar
    32   28   30      ar
    33   28   31       1
    34   31   33       1
    35   32   33       1
    36   32   34       1
    37   32   35       1
    38   32   36       1
    39   36   37       1
    40   36   38       1
    41   38   39       2
    42   38   40      am
    43   40   41       1
    44   41   42       1
    45   42   43       1
    46   43   44       2
    47   43   45      am
    48   45   46       1
    49   46   47       1
    50   47   48       1
    51    2   49       1
    52    7   50       1
    53    7   51       1
    54    9   52       1
    55   11   53       1
    56   12   54       1
    57   13   55       1
    58   14   56       1
    59   48   80       1
    60   47   79       1
    61   20   57       1
    62   22   58       1
    63   22   59       1
    64   47   78       1
    65   46   77       1
    66   33   60       1
    67   33   61       1
    68   34   62       1
    69   34   63       1
    70   34   64       1
    71   35   65       1
    72   35   66       1
    73   35   67       1
    74   36   68       1
    75   37   69       1
    76   40   70       1
    77   41   71       1
    78   41   72       1
    79   42   73       1
    80   42   74       1
    81   45   75       1
    82   46   76       1
@<TRIPOS>SUBSTRUCTURE
     1 COA601      1 GROUP             4 A     COA     0 **** COA A 601
