@<TRIPOS>MOLECULE
2xtk_AZM_1_ligand
   19    19     1     0     0
SMALL
NO_CHARGES


@<TRIPOS>ATOM
     1 C1          14.5950    35.7520    73.2710 C.2          1 AZM1339   0.0000
     2 C2          15.0390    37.5800    74.7130 C.2          1 AZM1339   0.0000
     3 C3          15.8080    39.7310    74.5300 C.2          1 AZM1339   0.0000
     4 C4          16.2160    41.0040    75.2620 C.3          1 AZM1339   0.0000
     5 N1          15.0450    33.3010    72.3630 N.3          1 AZM1339   0.0000
     6 N2          14.4910    36.5190    75.3190 N.2          1 AZM1339   0.0000
     7 N3          14.2490    35.5580    74.5570 N.2          1 AZM1339   0.0000
     8 N4          15.3880    38.7380    75.3200 N.am         1 AZM1339   0.0000
     9 O1          14.9650    35.1210    70.6900 O.2          1 AZM1339   0.0000
    10 O2          12.8640    34.3290    71.8050 O.2          1 AZM1339   0.0000
    11 O3          15.8510    39.6270    73.3100 O.2          1 AZM1339   0.0000
    12 S1          14.3670    34.5830    71.9940 S.o2         1 AZM1339   0.0000
    13 S2          15.2140    37.2220    73.1180 S.3          1 AZM1339   0.0000
    14 H1          16.5147    41.6893    74.5978 H            1 AZM1339   0.0000
    15 H2          15.4350    41.3572    75.7770 H            1 AZM1339   0.0000
    16 H3          16.9660    40.8008    75.8915 H            1 AZM1339   0.0000
    17 H4          16.0227    33.4663    72.4925 H            1 AZM1339   0.0000
    18 H5          14.6513    32.9480    73.2118 H            1 AZM1339   0.0000
    19 H6          15.3342    38.8457    76.3127 H            1 AZM1339   0.0000
@<TRIPOS>BOND
     1    1    7       2
     2    1   12       1
     3    1   13       1
     4    2    6       2
     5    2    8       1
     6    2   13       1
     7    3    4       1
     8    3    8      am
     9    3   11       2
    10    5   12       1
    11    6    7       1
    12    9   12       2
    13   10   12       2
    14    4   14       1
    15    4   15       1
    16    4   16       1
    17    5   17       1
    18    5   18       1
    19    8   19       1
@<TRIPOS>SUBSTRUCTURE
     1 AZM1339     1 GROUP             4 A     AZM     0 **** AZM A1339
