@<TRIPOS>MOLECULE
3um5_CP6_1_ligand
   31    32     1     0     0
SMALL
NO_CHARGES


@<TRIPOS>ATOM
     1 N1          29.9140     4.1220    56.7220 N.ar         1 CP6609   0.0000
     2 C2          29.3240     4.9030    55.7340 C.ar         1 CP6609   0.0000
     3 C3          29.5360     4.2550    58.0550 C.ar         1 CP6609   0.0000
     4 C4          28.4730     5.2440    58.4760 C.ar         1 CP6609   0.0000
     5 C5          27.8940     6.0490    57.2970 C.ar         1 CP6609   0.0000
     6 N6          28.3220     5.8640    55.9980 N.ar         1 CP6609   1.0000
     7 C7          28.0040     5.4410    59.8290 C.ar         1 CP6609   0.0000
     8 C8          28.3740     6.5680    60.6530 C.ar         1 CP6609   0.0000
     9 C9          27.8580     6.7310    61.9770 C.ar         1 CP6609   0.0000
    10 C10         26.9130     5.7220    62.5250 C.ar         1 CP6609   0.0000
    11 C11         26.5110     4.5860    61.7600 C.ar         1 CP6609   0.0000
    12 C12         27.0490     4.4410    60.4210 C.ar         1 CP6609   0.0000
    13 N13         30.1160     3.4870    58.9970 N.pl3        1 CP6609   0.0000
    14 N14         29.7400     4.7290    54.4110 N.pl3        1 CP6609   0.0000
    15 C15         26.8050     7.0800    57.5460 C.3          1 CP6609   0.0000
    16 C16         25.3700     6.7150    57.2120 C.3          1 CP6609   0.0000
    17 CL1         26.3920     6.0470    64.0460 Cl           1 CP6609   0.0000
    18 H1          29.0067     7.2514    60.2888 H            1 CP6609   0.0000
    19 H2          28.1308     7.5180    62.5303 H            1 CP6609   0.0000
    20 H3          25.8772     3.9101    62.1361 H            1 CP6609   0.0000
    21 H4          26.7761     3.6501    59.8733 H            1 CP6609   0.0000
    22 H5          29.8456     3.5813    59.9551 H            1 CP6609   0.0000
    23 H6          30.8171     2.8225    58.7384 H            1 CP6609   0.0000
    24 H7          29.3314     5.2782    53.6820 H            1 CP6609   0.0000
    25 H8          30.4462     4.0553    54.1934 H            1 CP6609   0.0000
    26 H9          27.0365     7.8897    57.0067 H            1 CP6609   0.0000
    27 H10         26.8323     7.3087    58.5191 H            1 CP6609   0.0000
    28 H11         24.7711     7.4863    57.4274 H            1 CP6609   0.0000
    29 H12         25.2989     6.4996    56.2381 H            1 CP6609   0.0000
    30 H13         25.0946     5.9186    57.7505 H            1 CP6609   0.0000
    31 H14         27.9282     6.4029    55.2533 H            1 CP6609   0.0000
@<TRIPOS>BOND
     1    1    2      ar
     2    1    3      ar
     3    2    6      ar
     4    2   14       1
     5    3    4      ar
     6    3   13       1
     7    4    5      ar
     8    4    7       1
     9    5    6      ar
    10    5   15       1
    11    7    8      ar
    12    7   12      ar
    13    8    9      ar
    14    9   10      ar
    15   10   11      ar
    16   10   17       1
    17   11   12      ar
    18   15   16       1
    19    8   18       1
    20    9   19       1
    21   11   20       1
    22   12   21       1
    23   13   22       1
    24   13   23       1
    25   14   24       1
    26   14   25       1
    27   15   26       1
    28   15   27       1
    29   16   28       1
    30   16   29       1
    31   16   30       1
    32    6   31       1
@<TRIPOS>SUBSTRUCTURE
     1 CP6609      1 GROUP             4 A     CP6     0 **** CP6 A 609
