@<TRIPOS>MOLECULE
4k97_ATP_1_ligand
   43    45     1     0     0
SMALL
NO_CHARGES


@<TRIPOS>ATOM
     1 PG          21.0840   214.9050   176.9990 P.3          1 ATP604   0.0000
     2 O1G         20.2610   215.6630   178.0220 O.co2        1 ATP604   0.0000
     3 O2G         20.8730   215.3690   175.5760 O.co2        1 ATP604  -1.0000
     4 O3G         22.5450   214.7770   177.3630 O.co2        1 ATP604  -1.0000
     5 PB          20.2430   212.5050   175.7310 P.3          1 ATP604   0.0000
     6 O1B         19.5130   213.3050   174.6800 O.co2        1 ATP604   0.0000
     7 O2B         19.6710   211.1850   176.1960 O.co2        1 ATP604  -1.0000
     8 O3B         20.5150   213.3930   177.0550 O.3          1 ATP604   0.0000
     9 PA          22.4670   212.3150   173.8570 P.3          1 ATP604   0.0000
    10 O1A         21.9490   213.5590   173.1630 O.co2        1 ATP604   0.0000
    11 O2A         23.9450   212.1310   174.1260 O.co2        1 ATP604  -1.0000
    12 O3A         21.7750   212.1860   175.3110 O.3          1 ATP604   0.0000
    13 O5'         22.0160   211.0140   173.0310 O.3          1 ATP604   0.0000
    14 C5'         20.7290   210.9280   172.4190 C.3          1 ATP604   0.0000
    15 C4'         20.2800   209.4650   172.4020 C.3          1 ATP604   0.0000
    16 O4'         21.1680   208.6150   171.6530 O.3          1 ATP604   0.0000
    17 C3'         20.2200   208.8770   173.8040 C.3          1 ATP604   0.0000
    18 O3'         18.9410   209.0940   174.4050 O.3          1 ATP604   0.0000
    19 C2'         20.5140   207.4050   173.5880 C.3          1 ATP604   0.0000
    20 O2'         19.3130   206.6460   173.3700 O.3          1 ATP604   0.0000
    21 C1'         21.3750   207.3690   172.3330 C.3          1 ATP604   0.0000
    22 N9          22.7860   207.2560   172.7900 N.pl3        1 ATP604   0.0000
    23 C8          23.6100   208.2990   173.0210 C.2          1 ATP604   0.0000
    24 N7          24.8320   207.8800   173.4390 N.2          1 ATP604   0.0000
    25 C5          24.8080   206.5380   173.4900 C.ar         1 ATP604   0.0000
    26 C6          25.7810   205.4780   173.8540 C.ar         1 ATP604   0.0000
    27 N6          27.0390   205.7960   174.2560 N.pl3        1 ATP604   0.0000
    28 N1          25.3560   204.1920   173.7700 N.ar         1 ATP604   0.0000
    29 C2          24.1050   203.8810   173.3680 C.ar         1 ATP604   0.0000
    30 N3          23.1720   204.7960   173.0260 N.ar         1 ATP604   0.0000
    31 C4          23.4550   206.1250   173.0650 C.ar         1 ATP604   0.0000
    32 H5'1        20.7799   211.2737   171.4820 H            1 ATP604   0.0000
    33 H5'2        20.0730   211.4737   172.9404 H            1 ATP604   0.0000
    34 H4'         19.3683   209.4144   171.9942 H            1 ATP604   0.0000
    35 H3'         20.9345   209.2847   174.3726 H            1 ATP604   0.0000
    36 H5          18.9488   209.9622   174.9011 H            1 ATP604   0.0000
    37 H2'         21.0210   207.0351   174.3666 H            1 ATP604   0.0000
    38 H7          19.2275   205.9463   174.0793 H            1 ATP604   0.0000
    39 H1'         21.1248   206.5966   171.7492 H            1 ATP604   0.0000
    40 H9          23.3536   209.2579   172.8999 H            1 ATP604   0.0000
    41 H10         27.6845   205.0717   174.4984 H            1 ATP604   0.0000
    42 H11         27.3195   206.7543   174.3096 H            1 ATP604   0.0000
    43 H12         23.8539   202.9142   173.3206 H            1 ATP604   0.0000
@<TRIPOS>BOND
     1    1    2      ar
     2    1    3      ar
     3    1    4      ar
     4    1    8       1
     5    5    6      ar
     6    5    7      ar
     7    5    8       1
     8    5   12       1
     9    9   10      ar
    10    9   11      ar
    11    9   12       1
    12    9   13       1
    13   13   14       1
    14   14   15       1
    15   15   16       1
    16   15   17       1
    17   16   21       1
    18   17   18       1
    19   17   19       1
    20   19   20       1
    21   19   21       1
    22   21   22       1
    23   22   23       1
    24   22   31       1
    25   23   24       2
    26   24   25       1
    27   25   26      ar
    28   25   31      ar
    29   26   27       1
    30   26   28      ar
    31   28   29      ar
    32   29   30      ar
    33   30   31      ar
    34   29   43       1
    35   27   42       1
    36   27   41       1
    37   23   40       1
    38   14   32       1
    39   14   33       1
    40   15   34       1
    41   17   35       1
    42   18   36       1
    43   19   37       1
    44   20   38       1
    45   21   39       1
@<TRIPOS>SUBSTRUCTURE
     1 ATP604      1 GROUP             4 A     ATP     0 **** ATP A 604
