@<TRIPOS>MOLECULE
5iua_6DX_1_ligand
   57    61     1     0     0
SMALL
USER_CHARGES


@<TRIPOS>ATOM
     1 C10        -21.0550    14.8060    14.4660 C.3          1 6DX2401   0.0000
     2 C13        -18.7130    14.3340    15.8520 C.3          1 6DX2401   0.0000
     3 C15        -18.1010    16.1010    14.2420 C.ar         1 6DX2401   0.0000
     4 C17        -16.7530    15.7550    12.2670 C.ar         1 6DX2401   0.0000
     5 C20        -17.8270    17.4590    14.1880 C.ar         1 6DX2401   0.0000
     6 C22        -21.0760     6.6640    17.4580 C.2          1 6DX2401   0.0000
     7 C24        -20.0150     4.9930    18.4320 C.2          1 6DX2401   0.0000
     8 C18        -16.4800    17.1150    12.2170 C.ar         1 6DX2401   0.0000
     9 C19        -17.0150    17.9660    13.1740 C.ar         1 6DX2401   0.0000
    10 C16        -17.5620    15.2500    13.2780 C.ar         1 6DX2401   0.0000
    11 C14        -19.4730    13.2170    15.1180 C.3          1 6DX2401   0.0000
    12 C11        -20.3040    15.8560    15.2850 C.3          1 6DX2401   0.0000
    13 N01        -18.2590     8.8970    18.0590 N.pl3        1 6DX2401   0.0000
    14 C02        -19.5380     8.4200    17.6300 C.2          1 6DX2401   0.0000
    15 N03        -20.4050     9.2450    17.0000 N.2          1 6DX2401   0.0000
    16 C04        -21.6240     8.7800    16.5920 C.2          1 6DX2401   0.0000
    17 N05        -22.5380     9.6420    15.9250 N.pl3        1 6DX2401   0.0000
    18 C06        -22.2140    11.0490    15.7670 C.3          1 6DX2401   0.0000
    19 C07        -21.3040    11.2390    14.5390 C.3          1 6DX2401   0.0000
    20 C08        -21.3020    12.7040    14.0310 C.3          1 6DX2401   0.0000
    21 N09        -20.8140    13.5030    14.8930 N.4          1 6DX2401   1.0000
    22 N12        -18.9600    15.5730    15.3120 N.pl3        1 6DX2401   0.0000
    23 N21        -21.9650     7.5110    16.8100 N.2          1 6DX2401   0.0000
    24 N23        -21.1690     5.3300    17.8120 N.2          1 6DX2401   0.0000
    25 N25        -19.2080     6.0860    18.4630 N.2          1 6DX2401   0.0000
    26 N26        -19.8880     7.1120    17.8570 N.pl3        1 6DX2401   0.0000
    27 C27        -19.6770     3.5940    18.9780 C.2          1 6DX2401   0.0000
    28 C28        -20.5870     2.5580    19.2260 C.2          1 6DX2401   0.0000
    29 C29        -19.8430     1.4610    19.6970 C.2          1 6DX2401   0.0000
    30 C30        -18.5030     1.8400    19.7230 C.2          1 6DX2401   0.0000
    31 O31        -18.4290     3.1370    19.2770 O.2          1 6DX2401   0.0000
    32 H1         -20.7709    14.8851    13.5105 H            1 6DX2401   0.0000
    33 H2         -22.0356    14.9880    14.5383 H            1 6DX2401   0.0000
    34 H3         -17.7322    14.1475    15.7944 H            1 6DX2401   0.0000
    35 H4         -18.9956    14.3389    16.8112 H            1 6DX2401   0.0000
    36 H5         -16.3689    15.1406    11.5779 H            1 6DX2401   0.0000
    37 H6         -18.2115    18.0746    14.8759 H            1 6DX2401   0.0000
    38 H7         -15.8978    17.4817    11.4914 H            1 6DX2401   0.0000
    39 H8         -16.8176    18.9456    13.1363 H            1 6DX2401   0.0000
    40 H9         -17.7587    14.2702    13.3143 H            1 6DX2401   0.0000
    41 H10        -19.4166    12.3837    15.6680 H            1 6DX2401   0.0000
    42 H11        -19.0311    13.0636    14.2342 H            1 6DX2401   0.0000
    43 H12        -20.6585    15.8596    16.2200 H            1 6DX2401   0.0000
    44 H13        -20.4427    16.7563    14.8725 H            1 6DX2401   0.0000
    45 H14        -17.6251     8.2790    18.5240 H            1 6DX2401   0.0000
    46 H15        -17.9990     9.8484    17.8938 H            1 6DX2401   0.0000
    47 H16        -23.3991     9.2812    15.5668 H            1 6DX2401   0.0000
    48 H17        -21.7401    11.3746    16.5852 H            1 6DX2401   0.0000
    49 H18        -23.0570    11.5717    15.6398 H            1 6DX2401   0.0000
    50 H19        -21.6276    10.6438    13.8035 H            1 6DX2401   0.0000
    51 H20        -20.3698    10.9835    14.7881 H            1 6DX2401   0.0000
    52 H21        -22.2426    12.9785    13.8313 H            1 6DX2401   0.0000
    53 H22        -20.7551    12.7560    13.1954 H            1 6DX2401   0.0000
    54 H23        -21.5776     2.5920    19.0933 H            1 6DX2401   0.0000
    55 H24        -20.2099     0.5701    19.9648 H            1 6DX2401   0.0000
    56 H25        -17.7339     1.2708    20.0138 H            1 6DX2401   0.0000
    57 H26        -21.3060    13.3654    15.7527 H            1 6DX2401   0.0000
@<TRIPOS>BOND
     1    1   12       1
     2    1   21       1
     3    2   11       1
     4    2   22       1
     5    3    5      ar
     6    3   10      ar
     7    3   22       1
     8    4    8      ar
     9    4   10      ar
    10    5    9      ar
    11    6   23       1
    12    6   24       2
    13    6   26       1
    14    7   24       1
    15    7   25       2
    16    7   27       1
    17    8    9      ar
    18   11   21       1
    19   12   22       1
    20   13   14       1
    21   14   15       2
    22   14   26       1
    23   15   16       1
    24   16   17       1
    25   16   23       2
    26   17   18       1
    27   18   19       1
    28   19   20       1
    29   20   21       1
    30   25   26       1
    31   27   28       2
    32   27   31       1
    33   28   29       1
    34   29   30       2
    35   30   31       1
    36    1   32       1
    37    1   33       1
    38    2   34       1
    39    2   35       1
    40    4   36       1
    41    5   37       1
    42    8   38       1
    43    9   39       1
    44   10   40       1
    45   11   41       1
    46   11   42       1
    47   12   43       1
    48   12   44       1
    49   13   45       1
    50   13   46       1
    51   17   47       1
    52   18   48       1
    53   18   49       1
    54   19   50       1
    55   19   51       1
    56   20   52       1
    57   20   53       1
    58   28   54       1
    59   29   55       1
    60   30   56       1
    61   21   57       1
@<TRIPOS>SUBSTRUCTURE
     1 6DX2401     1 GROUP             4 A     6DX     0 **** 6DX A2401
