@<TRIPOS>MOLECULE
1waj_5GP_1_ligand
   36    38     1     0     0
SMALL
NO_CHARGES


@<TRIPOS>ATOM
     1 P            0.9650     7.7410    50.8530 P.3          1 5GP904   0.0000
     2 O1P          0.0880     6.6160    50.4680 O.co2        1 5GP904   0.0000
     3 O2P          1.5840     8.4760    49.7260 O.co2        1 5GP904  -1.0000
     4 O3P          0.4000     8.6180    51.9090 O.co2        1 5GP904  -1.0000
     5 O5'          2.2110     7.0250    51.5710 O.3          1 5GP904   0.0000
     6 C5'          2.9310     7.7760    52.6100 C.3          1 5GP904   0.0000
     7 C4'          3.9260     7.1430    53.7340 C.3          1 5GP904   0.0000
     8 O4'          5.0930     6.3060    53.2850 O.3          1 5GP904   0.0000
     9 C3'          4.6030     8.4390    54.4060 C.3          1 5GP904   0.0000
    10 O3'          4.7610     8.2420    55.8800 O.3          1 5GP904   0.0000
    11 C2'          6.0100     8.4140    53.6280 C.3          1 5GP904   0.0000
    12 O2'          6.9790     9.2560    54.2570 O.3          1 5GP904   0.0000
    13 C1'          6.3330     6.9220    53.8180 C.3          1 5GP904   0.0000
    14 N9           7.5910     6.4200    53.1280 N.pl3        1 5GP904   0.0000
    15 C8           8.8380     6.2000    53.6680 C.2          1 5GP904   0.0000
    16 N7           9.7080     5.6540    52.8440 N.2          1 5GP904   0.0000
    17 C5           8.9960     5.4860    51.6470 C.2          1 5GP904   0.0000
    18 C6           9.3850     4.8470    50.3300 C.2          1 5GP904   0.0000
    19 O6          10.4310     4.2750    49.8490 O.2          1 5GP904   0.0000
    20 N1           8.2440     4.8860    49.5120 N.pl3        1 5GP904   0.0000
    21 C2           6.9890     5.4260    49.8590 C.2          1 5GP904   0.0000
    22 N2           6.0290     5.3500    48.9170 N.pl3        1 5GP904   0.0000
    23 N3           6.6700     5.9910    51.0330 N.2          1 5GP904   0.0000
    24 C4           7.7080     5.9750    51.8590 C.2          1 5GP904   0.0000
    25 H5'1         2.2210     8.2535    53.1276 H            1 5GP904   0.0000
    26 H5'2         3.4869     8.4427    52.1136 H            1 5GP904   0.0000
    27 H4'          3.3932     6.6445    54.4178 H            1 5GP904   0.0000
    28 H3'          4.0859     9.2700    54.2010 H            1 5GP904   0.0000
    29 H5           4.8889     7.2695    56.0745 H            1 5GP904   0.0000
    30 H2'          5.8978     8.6439    52.6613 H            1 5GP904   0.0000
    31 H7           6.6439    10.1981    54.2697 H            1 5GP904   0.0000
    32 H1'          6.3987     6.7258    54.7964 H            1 5GP904   0.0000
    33 H9           9.0655     6.4365    54.6126 H            1 5GP904   0.0000
    34 H10          8.3301     4.4934    48.5963 H            1 5GP904   0.0000
    35 H11          5.1167     5.7154    49.1022 H            1 5GP904   0.0000
    36 H12          6.2286     4.9282    48.0326 H            1 5GP904   0.0000
@<TRIPOS>BOND
     1    1    2      ar
     2    1    3      ar
     3    1    4      ar
     4    1    5       1
     5    5    6       1
     6    6    7       1
     7    7    8       1
     8    7    9       1
     9    8   13       1
    10    9   10       1
    11    9   11       1
    12   11   12       1
    13   11   13       1
    14   13   14       1
    15   14   15       1
    16   14   24       1
    17   15   16       2
    18   16   17       1
    19   17   18       1
    20   17   24       2
    21   18   19       2
    22   18   20       1
    23   20   21       1
    24   21   22       1
    25   21   23       2
    26   23   24       1
    27   22   36       1
    28   22   35       1
    29    6   25       1
    30    6   26       1
    31    7   27       1
    32    9   28       1
    33   10   29       1
    34   11   30       1
    35   12   31       1
    36   13   32       1
    37   15   33       1
    38   20   34       1
@<TRIPOS>SUBSTRUCTURE
     1 5GP904      1 GROUP             4 A     5GP     0 **** 5GP A 904
