@<TRIPOS>MOLECULE
1xcb_NAD_7_ligand
   73    77     1     0     0
SMALL
NO_CHARGES


@<TRIPOS>ATOM
     1 PA          78.7730    82.0560    47.1600 P.3          1 NAD212   0.0000
     2 O1A         78.8830    81.3180    48.4400 O.co2        1 NAD212   0.0000
     3 O2A         79.2320    81.4090    45.8820 O.co2        1 NAD212  -1.0000
     4 O5B         77.2360    82.4600    47.0710 O.3          1 NAD212   0.0000
     5 C5B         76.5210    82.7800    45.8300 C.3          1 NAD212   0.0000
     6 C4B         75.1730    82.0860    45.8690 C.3          1 NAD212   0.0000
     7 O4B         74.5040    82.4930    44.6230 O.3          1 NAD212   0.0000
     8 C3B         75.1940    80.5130    45.7860 C.3          1 NAD212   0.0000
     9 O3B         74.4780    79.9950    46.9360 O.3          1 NAD212   0.0000
    10 C2B         74.5400    80.1460    44.4490 C.3          1 NAD212   0.0000
    11 O2B         73.8780    78.9280    44.3400 O.3          1 NAD212   0.0000
    12 C1B         73.6830    81.4070    44.2250 C.3          1 NAD212   0.0000
    13 N9A         73.3720    81.6950    42.8400 N.pl3        1 NAD212   0.0000
    14 C8A         74.0990    81.6220    41.6560 C.2          1 NAD212   0.0000
    15 N7A         73.4130    81.9970    40.5950 N.2          1 NAD212   0.0000
    16 C5A         72.1950    82.3520    41.0290 C.ar         1 NAD212   0.0000
    17 C6A         70.9900    82.8340    40.3480 C.ar         1 NAD212   0.0000
    18 N6A         70.9580    83.0560    39.0450 N.pl3        1 NAD212   0.0000
    19 N1A         69.9050    83.0740    41.1870 N.ar         1 NAD212   0.0000
    20 C2A         69.8850    82.8730    42.5090 C.ar         1 NAD212   0.0000
    21 N3A         71.0040    82.4140    43.1990 N.ar         1 NAD212   0.0000
    22 C4A         72.1290    82.1430    42.4200 C.ar         1 NAD212   0.0000
    23 O3          79.6780    83.3890    47.3050 O.3          1 NAD212   0.0000
    24 PN          79.7800    84.6430    48.3840 P.3          1 NAD212   0.0000
    25 O1N         81.1450    85.0120    48.7830 O.co2        1 NAD212   0.0000
    26 O2N         78.7940    84.3730    49.4770 O.co2        1 NAD212  -1.0000
    27 O5D         79.5310    85.7750    47.3420 O.3          1 NAD212   0.0000
    28 C5D         78.3730    85.9170    46.5400 C.3          1 NAD212   0.0000
    29 C4D         78.3970    87.3360    46.1890 C.3          1 NAD212   0.0000
    30 O4D         78.9860    88.0880    47.3360 O.3          1 NAD212   0.0000
    31 C3D         79.2960    87.7940    44.9780 C.3          1 NAD212   0.0000
    32 O3D         78.5210    88.7590    44.2720 O.3          1 NAD212   0.0000
    33 C2D         80.4960    88.4990    45.6190 C.3          1 NAD212   0.0000
    34 O2D         81.1700    89.4020    44.7700 O.3          1 NAD212   0.0000
    35 C1D         79.8060    89.1690    46.8330 C.3          1 NAD212   0.0000
    36 N1N         80.8040    89.6810    47.8420 N.pl3        1 NAD212   0.0000
    37 C2N         80.6420    91.0890    48.1230 C.2          1 NAD212   0.0000
    38 C3N         81.0020    91.6620    49.2750 C.2          1 NAD212   0.0000
    39 C7N         80.8130    93.1500    49.4890 C.2          1 NAD212   0.0000
    40 O7N         81.6650    93.7680    50.1760 O.2          1 NAD212   0.0000
    41 N7N         79.7560    93.7650    48.9270 N.am         1 NAD212   0.0000
    42 C4N         81.6160    90.8390    50.4020 C.3          1 NAD212   0.0000
    43 C5N         81.0750    89.4300    50.3240 C.3          1 NAD212   0.0000
    44 C6N         81.0130    88.8480    49.0240 C.3          1 NAD212   0.0000
    45 H5B1        77.0462    82.4559    45.0432 H            1 NAD212   0.0000
    46 H5B2        76.3909    83.7690    45.7594 H            1 NAD212   0.0000
    47 H4B         74.6466    82.3878    46.6639 H            1 NAD212   0.0000
    48 H3B         76.1390    80.1863    45.8010 H            1 NAD212   0.0000
    49 H5          73.5357    80.3294    46.9204 H            1 NAD212   0.0000
    50 H2B         75.2612    80.1527    43.7563 H            1 NAD212   0.0000
    51 H7          72.9179    79.0466    44.5932 H            1 NAD212   0.0000
    52 H1B         72.8492    81.3719    44.7760 H            1 NAD212   0.0000
    53 H8A         75.0497    81.3148    41.6141 H            1 NAD212   0.0000
    54 H6A1        70.1176    83.3850    38.6143 H            1 NAD212   0.0000
    55 H6A2        71.7742    82.8949    38.4902 H            1 NAD212   0.0000
    56 H2A         69.0431    83.0575    43.0161 H            1 NAD212   0.0000
    57 H5D1        77.5473    85.6869    47.0550 H            1 NAD212   0.0000
    58 H5D2        78.4274    85.3426    45.7233 H            1 NAD212   0.0000
    59 H4D         77.4601    87.6513    46.0381 H            1 NAD212   0.0000
    60 H3D         79.5707    87.0278    44.3970 H            1 NAD212   0.0000
    61 H17         77.6707    88.3376    43.9567 H            1 NAD212   0.0000
    62 H2D         81.1436    87.8115    45.9476 H            1 NAD212   0.0000
    63 H19         81.9350    89.8158    45.2635 H            1 NAD212   0.0000
    64 H1D         79.2237    89.9196    46.5207 H            1 NAD212   0.0000
    65 H2N         80.2373    91.6676    47.4148 H            1 NAD212   0.0000
    66 H7N1        79.6196    94.7466    49.0604 H            1 NAD212   0.0000
    67 H7N2        79.1070    93.2403    48.3760 H            1 NAD212   0.0000
    68 H4N1        81.3747    91.2437    51.2841 H            1 NAD212   0.0000
    69 H4N2        82.6110    90.8232    50.3035 H            1 NAD212   0.0000
    70 H5N1        80.1478    89.4385    50.6985 H            1 NAD212   0.0000
    71 H5N2        81.6581    88.8480    50.8908 H            1 NAD212   0.0000
    72 H6N1        81.8787    88.3672    48.8849 H            1 NAD212   0.0000
    73 H6N2        80.2635    88.1862    49.0430 H            1 NAD212   0.0000
@<TRIPOS>BOND
     1    1    2      ar
     2    1    3      ar
     3    1    4       1
     4    1   23       1
     5    4    5       1
     6    5    6       1
     7    6    7       1
     8    6    8       1
     9    7   12       1
    10    8    9       1
    11    8   10       1
    12   10   11       1
    13   10   12       1
    14   12   13       1
    15   13   14       1
    16   13   22       1
    17   14   15       2
    18   15   16       1
    19   16   17      ar
    20   16   22      ar
    21   17   18       1
    22   17   19      ar
    23   19   20      ar
    24   20   21      ar
    25   21   22      ar
    26   23   24       1
    27   24   25      ar
    28   24   26      ar
    29   24   27       1
    30   27   28       1
    31   28   29       1
    32   29   30       1
    33   29   31       1
    34   30   35       1
    35   31   32       1
    36   31   33       1
    37   33   34       1
    38   33   35       1
    39   35   36       1
    40   36   37       1
    41   36   44       1
    42   37   38       2
    43   38   39       1
    44   38   42       1
    45   39   40       2
    46   39   41      am
    47   42   43       1
    48   43   44       1
    49   44   73       1
    50    5   45       1
    51    5   46       1
    52    6   47       1
    53    8   48       1
    54    9   49       1
    55   10   50       1
    56   11   51       1
    57   12   52       1
    58   14   53       1
    59   18   54       1
    60   18   55       1
    61   20   56       1
    62   44   72       1
    63   28   57       1
    64   28   58       1
    65   29   59       1
    66   31   60       1
    67   32   61       1
    68   33   62       1
    69   34   63       1
    70   35   64       1
    71   37   65       1
    72   41   66       1
    73   41   67       1
    74   42   68       1
    75   42   69       1
    76   43   70       1
    77   43   71       1
@<TRIPOS>SUBSTRUCTURE
     1 NAD212      1 GROUP             4 G     NAD     0 **** NAD G 212
