@<TRIPOS>MOLECULE
4pl9_ADP_1_ligand
   39    41     1     0     0
SMALL
NO_CHARGES


@<TRIPOS>ATOM
     1 PB           0.0980   -17.2470    26.2620 P.3          1 ADP613   0.0000
     2 O1B          1.0470   -18.3060    25.8640 O.co2        1 ADP613   0.0000
     3 O2B         -1.3430   -17.4670    25.9230 O.co2        1 ADP613  -1.0000
     4 O3B          0.3260   -16.8550    27.7020 O.co2        1 ADP613  -1.0000
     5 PA          -0.0410   -14.8220    24.6160 P.3          1 ADP613   0.0000
     6 O1A         -1.1280   -15.2540    23.7010 O.co2        1 ADP613   0.0000
     7 O2A          1.0490   -13.9580    24.0400 O.co2        1 ADP613  -1.0000
     8 O3A          0.7020   -16.0190    25.4050 O.3          1 ADP613   0.0000
     9 O5'         -0.7430   -14.0510    25.8340 O.3          1 ADP613   0.0000
    10 C5'          0.1030   -13.2730    26.6740 C.3          1 ADP613   0.0000
    11 C4'         -0.6450   -13.0700    27.9680 C.3          1 ADP613   0.0000
    12 O4'         -1.7310   -12.1850    27.7150 O.3          1 ADP613   0.0000
    13 C3'         -1.2980   -14.3390    28.5020 C.3          1 ADP613   0.0000
    14 O3'         -0.4100   -15.1570    29.2580 O.3          1 ADP613   0.0000
    15 C2'         -2.4220   -13.7480    29.3410 C.3          1 ADP613   0.0000
    16 O2'         -1.9720   -13.2300    30.6100 O.3          1 ADP613   0.0000
    17 C1'         -2.8410   -12.5520    28.5290 C.3          1 ADP613   0.0000
    18 N9          -3.9970   -12.8220    27.6420 N.pl3        1 ADP613   0.0000
    19 C8          -3.9600   -12.9510    26.3000 C.2          1 ADP613   0.0000
    20 N7          -5.1990   -13.1530    25.8080 N.2          1 ADP613   0.0000
    21 C5          -6.0230   -13.1320    26.8700 C.ar         1 ADP613   0.0000
    22 C6          -7.4600   -13.2630    27.0650 C.ar         1 ADP613   0.0000
    23 N6          -8.2520   -13.4810    25.9890 N.pl3        1 ADP613   0.0000
    24 N1          -7.9220   -13.1790    28.3290 N.ar         1 ADP613   0.0000
    25 C2          -7.1390   -12.9680    29.4020 C.ar         1 ADP613   0.0000
    26 N3          -5.8160   -12.8350    29.2990 N.ar         1 ADP613   0.0000
    27 C4          -5.2340   -12.9050    28.0730 C.ar         1 ADP613   0.0000
    28 H5'1         0.2976   -12.3906    26.2457 H            1 ADP613   0.0000
    29 H5'2         0.9611   -13.7577    26.8437 H            1 ADP613   0.0000
    30 H4'         -0.0369   -12.6793    28.6590 H            1 ADP613   0.0000
    31 H3'         -1.6823   -14.8666    27.7445 H            1 ADP613   0.0000
    32 H5           0.0451   -15.8065    28.6488 H            1 ADP613   0.0000
    33 H2'         -3.1748   -14.3963    29.4552 H            1 ADP613   0.0000
    34 H7          -1.7207   -12.2676    30.5070 H            1 ADP613   0.0000
    35 H1'         -3.0649   -11.7960    29.1441 H            1 ADP613   0.0000
    36 H9          -3.1286   -12.9034    25.7464 H            1 ADP613   0.0000
    37 H10         -9.2408   -13.5732    26.1064 H            1 ADP613   0.0000
    38 H11         -7.8483   -13.5498    25.0767 H            1 ADP613   0.0000
    39 H12         -7.5624   -12.9090    30.3060 H            1 ADP613   0.0000
@<TRIPOS>BOND
     1    1    2      ar
     2    1    3      ar
     3    1    4      ar
     4    1    8       1
     5    5    6      ar
     6    5    7      ar
     7    5    8       1
     8    5    9       1
     9    9   10       1
    10   10   11       1
    11   11   12       1
    12   11   13       1
    13   12   17       1
    14   13   14       1
    15   13   15       1
    16   15   16       1
    17   15   17       1
    18   17   18       1
    19   18   19       1
    20   18   27       1
    21   19   20       2
    22   20   21       1
    23   21   22      ar
    24   21   27      ar
    25   22   23       1
    26   22   24      ar
    27   24   25      ar
    28   25   26      ar
    29   26   27      ar
    30   25   39       1
    31   23   38       1
    32   23   37       1
    33   10   28       1
    34   10   29       1
    35   11   30       1
    36   13   31       1
    37   14   32       1
    38   15   33       1
    39   16   34       1
    40   17   35       1
    41   19   36       1
@<TRIPOS>SUBSTRUCTURE
     1 ADP613      1 GROUP             4 A     ADP     0 **** ADP A 613
