@<TRIPOS>MOLECULE
2z71_PNV_1_ligand
   41    43     1     0     0
SMALL
NO_CHARGES


@<TRIPOS>ATOM
     1 C24         13.6660    52.1500    33.1190 C.ar         1 PNV903   0.0000
     2 C23         12.5340    51.9250    32.3360 C.ar         1 PNV903   0.0000
     3 C22         12.0100    52.9580    31.5710 C.ar         1 PNV903   0.0000
     4 C21         12.6090    54.2120    31.5940 C.ar         1 PNV903   0.0000
     5 C20         13.7440    54.4330    32.3760 C.ar         1 PNV903   0.0000
     6 C19         14.2870    53.4030    33.1530 C.ar         1 PNV903   0.0000
     7 O1          15.4100    53.6690    33.9220 O.3          1 PNV903   0.0000
     8 C2          15.9490    52.8600    34.9830 C.3          1 PNV903   0.0000
     9 C3          15.2700    52.9910    36.3410 C.2          1 PNV903   0.0000
    10 O18         15.5110    53.9320    37.0730 O.2          1 PNV903   0.0000
    11 N4          14.4480    51.9690    36.6160 N.am         1 PNV903   0.0000
    12 C5          13.5590    51.5500    37.7260 C.3          1 PNV903   0.0000
    13 C6          12.6770    52.4580    38.5370 C.2          1 PNV903   0.0000
    14 O17         11.6730    53.1120    38.2650 O.2          1 PNV903   0.0000
    15 C8          14.2860    51.1980    39.0590 C.3          1 PNV903   0.0000
    16 N7          13.3800    52.1840    39.6230 N.am         1 PNV903   0.0000
    17 S11         15.7070    52.0270    39.7040 S.3          1 PNV903   0.0000
    18 C10         15.0470    52.4660    41.3010 C.3          1 PNV903   0.0000
    19 C12         15.3190    51.3150    42.2830 C.3          1 PNV903   0.0000
    20 C15         15.7660    53.7080    41.8300 C.3          1 PNV903   0.0000
    21 C9          13.5440    52.7450    40.9770 C.3          1 PNV903   0.0000
    22 C13         12.4660    52.3930    41.9950 C.2          1 PNV903   0.0000
    23 O14         12.6170    51.4470    42.8070 O.co2        1 PNV903   0.0000
    24 O16         11.4210    53.0920    41.9980 O.co2        1 PNV903  -1.0000
    25 H1          14.0407    51.4016    33.6663 H            1 PNV903   0.0000
    26 H2          12.1017    51.0233    32.3257 H            1 PNV903   0.0000
    27 H3          11.2019    52.8000    31.0036 H            1 PNV903   0.0000
    28 H4          12.2259    54.9578    31.0490 H            1 PNV903   0.0000
    29 H5          14.1734    55.3361    32.3812 H            1 PNV903   0.0000
    30 H6          16.9108    53.1086    35.0976 H            1 PNV903   0.0000
    31 H7          15.8835    51.9030    34.7003 H            1 PNV903   0.0000
    32 H8          14.4290    51.3071    35.8666 H            1 PNV903   0.0000
    33 H9          13.0239    50.7585    37.4307 H            1 PNV903   0.0000
    34 H10         14.1538    50.2613    39.3834 H            1 PNV903   0.0000
    35 H11         14.9525    51.5510    43.1830 H            1 PNV903   0.0000
    36 H12         14.8766    50.4819    41.9509 H            1 PNV903   0.0000
    37 H13         16.3049    51.1633    42.3539 H            1 PNV903   0.0000
    38 H14         15.3942    53.9523    42.7256 H            1 PNV903   0.0000
    39 H15         16.7436    53.5159    41.9160 H            1 PNV903   0.0000
    40 H16         15.6303    54.4679    41.1942 H            1 PNV903   0.0000
    41 H17         13.4805    53.7361    40.8598 H            1 PNV903   0.0000
@<TRIPOS>BOND
     1    1    2      ar
     2    1    6      ar
     3    2    3      ar
     4    3    4      ar
     5    4    5      ar
     6    5    6      ar
     7    6    7       1
     8    7    8       1
     9    8    9       1
    10    9   10       2
    11    9   11      am
    12   11   12       1
    13   12   13       1
    14   12   15       1
    15   13   14       2
    16   13   16      am
    17   15   16       1
    18   15   17       1
    19   16   21       1
    20   17   18       1
    21   18   19       1
    22   18   20       1
    23   18   21       1
    24   21   22       1
    25   22   23      ar
    26   22   24      ar
    27    1   25       1
    28    2   26       1
    29    3   27       1
    30    4   28       1
    31    5   29       1
    32    8   30       1
    33    8   31       1
    34   11   32       1
    35   12   33       1
    36   15   34       1
    37   19   35       1
    38   19   36       1
    39   19   37       1
    40   20   38       1
    41   20   39       1
    42   20   40       1
    43   21   41       1
@<TRIPOS>SUBSTRUCTURE
     1 PNV903      1 GROUP             4 A     PNV     0 **** PNV A 903
