@<TRIPOS>MOLECULE
3zbn_COA_3_ligand
   80    82     1     0     0
SMALL
NO_CHARGES


@<TRIPOS>ATOM
     1 N1A        -47.6620    60.8880   -32.5120 N.ar         1 COA1442   0.0000
     2 C2A        -46.7250    60.0350   -32.0510 C.ar         1 COA1442   0.0000
     3 N3A        -45.9550    59.3010   -32.8840 N.ar         1 COA1442   0.0000
     4 C4A        -46.0890    59.3890   -34.2350 C.ar         1 COA1442   0.0000
     5 C5A        -47.0950    60.2980   -34.8040 C.ar         1 COA1442   0.0000
     6 C6A        -47.8980    61.0700   -33.8410 C.ar         1 COA1442   0.0000
     7 N6A        -48.8400    61.9230   -34.2980 N.pl3        1 COA1442   0.0000
     8 N7A        -47.0300    60.2050   -36.1410 N.2          1 COA1442   0.0000
     9 C8A        -46.0550    59.3110   -36.4240 C.2          1 COA1442   0.0000
    10 N9A        -45.5040    58.8180   -35.2900 N.pl3        1 COA1442   0.0000
    11 C1B        -44.3840    57.8400   -35.2540 C.3          1 COA1442   0.0000
    12 C2B        -43.1170    58.6670   -35.4830 C.3          1 COA1442   0.0000
    13 O2B        -42.2070    58.0910   -36.4280 O.3          1 COA1442   0.0000
    14 C3B        -42.5360    58.6720   -34.0910 C.3          1 COA1442   0.0000
    15 O3B        -41.1720    59.0650   -34.0300 O.3          1 COA1442   0.0000
    16 P3B        -40.8270    60.3050   -33.0470 P.3          1 COA1442   0.0000
    17 O7A        -41.8700    60.2020   -31.9450 O.co2        1 COA1442   0.0000
    18 O8A        -40.9400    61.5170   -33.9640 O.co2        1 COA1442  -1.0000
    19 O9A        -39.4360    60.0040   -32.5210 O.co2        1 COA1442  -1.0000
    20 C4B        -42.8070    57.2540   -33.6430 C.3          1 COA1442   0.0000
    21 O4B        -44.1990    57.1710   -33.9840 O.3          1 COA1442   0.0000
    22 C5B        -42.3940    56.9600   -32.1930 C.3          1 COA1442   0.0000
    23 O5B        -43.4930    56.7880   -31.2940 O.3          1 COA1442   0.0000
    24 P1A        -43.6570    57.6330   -29.9130 P.3          1 COA1442   0.0000
    25 O1A        -44.9340    58.4380   -30.0120 O.co2        1 COA1442   0.0000
    26 O2A        -42.3400    58.3380   -29.6340 O.co2        1 COA1442  -1.0000
    27 O3A        -43.9500    56.4830   -28.8120 O.3          1 COA1442   0.0000
    28 P2A        -45.4180    55.8220   -28.5150 P.3          1 COA1442   0.0000
    29 O4A        -45.5830    55.8630   -27.0150 O.co2        1 COA1442   0.0000
    30 O5A        -46.4840    56.5110   -29.3540 O.co2        1 COA1442  -1.0000
    31 O6A        -45.3340    54.2620   -29.0100 O.3          1 COA1442   0.0000
    32 CBP        -44.3350    52.1340   -29.7880 C.3          1 COA1442   0.0000
    33 CCP        -44.0990    53.5600   -29.2870 C.3          1 COA1442   0.0000
    34 CDP        -45.3630    51.4510   -28.8760 C.3          1 COA1442   0.0000
    35 CEP        -44.9200    52.2550   -31.1870 C.3          1 COA1442   0.0000
    36 CAP        -42.9950    51.3260   -29.9170 C.3          1 COA1442   0.0000
    37 OAP        -41.8460    52.1760   -29.7180 O.3          1 COA1442   0.0000
    38 C9P        -42.8560    50.0760   -29.0300 C.2          1 COA1442   0.0000
    39 O9P        -43.5680    49.9780   -28.0330 O.2          1 COA1442   0.0000
    40 N8P        -41.9790    49.0900   -29.3980 N.am         1 COA1442   0.0000
    41 C7P        -41.8470    47.7890   -28.7020 C.3          1 COA1442   0.0000
    42 C6P        -40.5970    46.9040   -28.9950 C.3          1 COA1442   0.0000
    43 C5P        -40.6730    45.5720   -28.2470 C.2          1 COA1442   0.0000
    44 O5P        -41.4980    45.5560   -27.3540 O.2          1 COA1442   0.0000
    45 N4P        -39.9070    44.4700   -28.5970 N.am         1 COA1442   0.0000
    46 C3P        -40.1050    43.0670   -28.1360 C.3          1 COA1442   0.0000
    47 C2P        -39.0470    42.2770   -27.3030 C.3          1 COA1442   0.0000
    48 S1P        -39.3930    40.4440   -27.1970 S.3          1 COA1442   0.0000
    49 H2A        -46.5962    59.9429   -31.0636 H            1 COA1442   0.0000
    50 H6A1       -48.9835    62.0290   -35.2820 H            1 COA1442   0.0000
    51 H6A2       -49.3941    62.4486   -33.6524 H            1 COA1442   0.0000
    52 H8A        -45.7780    59.0490   -37.3484 H            1 COA1442   0.0000
    53 H1B        -44.4919    57.1664   -35.9851 H            1 COA1442   0.0000
    54 H2B        -43.3579    59.5974   -35.7594 H            1 COA1442   0.0000
    55 H7         -41.4076    58.6839   -36.5250 H            1 COA1442   0.0000
    56 H3B        -43.0736    59.2949   -33.5227 H            1 COA1442   0.0000
    57 H4B        -42.3010    56.6348   -34.2434 H            1 COA1442   0.0000
    58 H5B1       -41.8367    57.7227   -31.8648 H            1 COA1442   0.0000
    59 H5B2       -41.8489    56.1217   -32.1860 H            1 COA1442   0.0000
    60 HCP1       -43.5580    53.5193   -28.4470 H            1 COA1442   0.0000
    61 HCP2       -43.5925    54.0656   -29.9855 H            1 COA1442   0.0000
    62 HDP1       -45.5240    50.5173   -29.1958 H            1 COA1442   0.0000
    63 HDP2       -45.0136    51.4269   -27.9393 H            1 COA1442   0.0000
    64 HDP3       -46.2212    51.9637   -28.8985 H            1 COA1442   0.0000
    65 HEP1       -45.0916    51.3418   -31.5567 H            1 COA1442   0.0000
    66 HEP2       -45.7792    52.7649   -31.1461 H            1 COA1442   0.0000
    67 HEP3       -44.2737    52.7378   -31.7779 H            1 COA1442   0.0000
    68 HAP        -42.9486    51.0065   -30.8634 H            1 COA1442   0.0000
    69 H21        -41.0107    51.6334   -29.8062 H            1 COA1442   0.0000
    70 H8P        -41.3896    49.2595   -30.1878 H            1 COA1442   0.0000
    71 H7P1       -42.6532    47.2463   -28.9378 H            1 COA1442   0.0000
    72 H7P2       -41.8488    47.9793   -27.7203 H            1 COA1442   0.0000
    73 H6P1       -39.7752    47.3944   -28.7048 H            1 COA1442   0.0000
    74 H6P2       -40.5482    46.7238   -29.9774 H            1 COA1442   0.0000
    75 H4P        -39.1441    44.6337   -29.2225 H            1 COA1442   0.0000
    76 H3P1       -40.2606    42.5268   -28.9631 H            1 COA1442   0.0000
    77 H3P2       -40.9376    43.0761   -27.5823 H            1 COA1442   0.0000
    78 H2P1       -39.0328    42.6500   -26.3753 H            1 COA1442   0.0000
    79 H2P2       -38.1508    42.4053   -27.7276 H            1 COA1442   0.0000
    80 H1P        -39.4007    40.0525   -28.1171 H            1 COA1442   0.0000
@<TRIPOS>BOND
     1    1    2      ar
     2    1    6      ar
     3    2    3      ar
     4    3    4      ar
     5    4    5      ar
     6    4   10       1
     7    5    6      ar
     8    5    8       1
     9    6    7       1
    10    8    9       2
    11    9   10       1
    12   10   11       1
    13   11   12       1
    14   11   21       1
    15   12   13       1
    16   12   14       1
    17   14   15       1
    18   14   20       1
    19   15   16       1
    20   16   17      ar
    21   16   18      ar
    22   16   19      ar
    23   20   21       1
    24   20   22       1
    25   22   23       1
    26   23   24       1
    27   24   25      ar
    28   24   26      ar
    29   24   27       1
    30   27   28       1
    31   28   29      ar
    32   28   30      ar
    33   28   31       1
    34   31   33       1
    35   32   33       1
    36   32   34       1
    37   32   35       1
    38   32   36       1
    39   36   37       1
    40   36   38       1
    41   38   39       2
    42   38   40      am
    43   40   41       1
    44   41   42       1
    45   42   43       1
    46   43   44       2
    47   43   45      am
    48   45   46       1
    49   46   47       1
    50   47   48       1
    51    2   49       1
    52    7   50       1
    53    7   51       1
    54    9   52       1
    55   11   53       1
    56   12   54       1
    57   13   55       1
    58   14   56       1
    59   48   80       1
    60   47   79       1
    61   20   57       1
    62   22   58       1
    63   22   59       1
    64   47   78       1
    65   46   77       1
    66   33   60       1
    67   33   61       1
    68   34   62       1
    69   34   63       1
    70   34   64       1
    71   35   65       1
    72   35   66       1
    73   35   67       1
    74   36   68       1
    75   37   69       1
    76   40   70       1
    77   41   71       1
    78   41   72       1
    79   42   73       1
    80   42   74       1
    81   45   75       1
    82   46   76       1
@<TRIPOS>SUBSTRUCTURE
     1 COA1442     1 GROUP             4 D     COA     0 **** COA D1442
