@<TRIPOS>MOLECULE
1s7l_COA_1_ligand
   80    82     1     0     0
SMALL
NO_CHARGES


@<TRIPOS>ATOM
     1 N1A         16.2560    35.1820    23.6080 N.ar         1 COA601   0.0000
     2 C2A         16.1710    35.4150    22.2750 C.ar         1 COA601   0.0000
     3 N3A         15.4210    36.3050    21.6920 N.ar         1 COA601   0.0000
     4 C4A         14.6360    37.1220    22.5220 C.ar         1 COA601   0.0000
     5 C5A         14.6630    36.9730    23.9170 C.ar         1 COA601   0.0000
     6 C6A         15.5180    35.9370    24.4650 C.ar         1 COA601   0.0000
     7 N6A         15.5440    35.7400    25.7970 N.pl3        1 COA601   0.0000
     8 N7A         13.8360    37.8610    24.5450 N.2          1 COA601   0.0000
     9 C8A         13.2670    38.5610    23.5890 C.2          1 COA601   0.0000
    10 N9A         13.7110    38.1320    22.3740 N.pl3        1 COA601   0.0000
    11 C1B         13.1960    38.6220    21.0610 C.3          1 COA601   0.0000
    12 C2B         14.0730    39.2920    20.0530 C.3          1 COA601   0.0000
    13 O2B         13.5640    40.5850    19.8670 O.3          1 COA601   0.0000
    14 C3B         13.8600    38.5560    18.7010 C.3          1 COA601   0.0000
    15 O3B         15.0730    38.1820    18.3570 O.3          1 COA601   0.0000
    16 P3B         15.8730    38.3080    17.0310 P.3          1 COA601   0.0000
    17 O7A         15.2690    39.2340    16.0990 O.co2        1 COA601   0.0000
    18 O8A         15.9200    36.8440    16.5970 O.co2        1 COA601  -1.0000
    19 O9A         17.1440    38.8380    17.5200 O.co2        1 COA601  -1.0000
    20 C4B         12.9580    37.3560    19.1270 C.3          1 COA601   0.0000
    21 O4B         12.4890    37.5790    20.4090 O.3          1 COA601   0.0000
    22 C5B         13.3860    35.9340    19.1000 C.3          1 COA601   0.0000
    23 O5B         12.1830    35.1470    19.3020 O.3          1 COA601   0.0000
    24 P1A         12.0340    33.6970    18.5720 P.3          1 COA601   0.0000
    25 O1A         13.3040    32.9430    18.6530 O.co2        1 COA601   0.0000
    26 O2A         10.8650    33.1200    19.1590 O.co2        1 COA601  -1.0000
    27 O3A         11.8780    34.0140    17.0550 O.3          1 COA601   0.0000
    28 P2A         10.7980    34.9300    16.3160 P.3          1 COA601   0.0000
    29 O4A          9.7040    35.2950    17.1720 O.co2        1 COA601   0.0000
    30 O5A         11.5340    36.0440    15.6530 O.co2        1 COA601  -1.0000
    31 O6A         10.2100    34.1010    15.1260 O.3          1 COA601   0.0000
    32 CBP         10.3050    32.5510    13.3050 C.3          1 COA601   0.0000
    33 CCP         11.0860    33.4990    14.2060 C.3          1 COA601   0.0000
    34 CDP         11.2700    32.1350    12.1780 C.3          1 COA601   0.0000
    35 CEP          9.8950    31.3220    14.1890 C.3          1 COA601   0.0000
    36 CAP          9.0320    33.2510    12.6880 C.3          1 COA601   0.0000
    37 OAP          9.3980    34.4000    11.9870 O.3          1 COA601   0.0000
    38 C9P          8.1430    32.3800    11.8040 C.2          1 COA601   0.0000
    39 O9P          7.3430    31.6830    12.2900 O.2          1 COA601   0.0000
    40 N8P          8.3400    32.5140    10.4330 N.am         1 COA601   0.0000
    41 C7P          7.7150    31.6210     9.4070 C.3          1 COA601   0.0000
    42 C6P          8.3420    30.2110     9.3310 C.3          1 COA601   0.0000
    43 C5P          9.7520    30.2780     8.8370 C.2          1 COA601   0.0000
    44 O5P         10.1960    31.2760     8.4320 O.2          1 COA601   0.0000
    45 N4P         10.5120    29.1920     8.9980 N.am         1 COA601   0.0000
    46 C3P         11.9460    29.2100     8.6850 C.3          1 COA601   0.0000
    47 C2P         12.3000    28.2160     7.5960 C.3          1 COA601   0.0000
    48 S1P         11.9220    28.9420     5.9740 S.3          1 COA601   0.0000
    49 H2A         16.7408    34.8470    21.6811 H            1 COA601   0.0000
    50 H6A1        14.9882    36.3141    26.3983 H            1 COA601   0.0000
    51 H6A2        16.1191    35.0196    26.1848 H            1 COA601   0.0000
    52 H8A         12.6068    39.2984    23.7319 H            1 COA601   0.0000
    53 H1B         12.5003    39.3020    21.2925 H            1 COA601   0.0000
    54 H2B         15.0331    39.2998    20.3324 H            1 COA601   0.0000
    55 H31         14.2637    41.2568    20.1100 H            1 COA601   0.0000
    56 H3B         13.4268    39.1365    18.0115 H            1 COA601   0.0000
    57 H4B         12.1529    37.4039    18.5359 H            1 COA601   0.0000
    58 H5B1        14.0441    35.7558    19.8315 H            1 COA601   0.0000
    59 H5B2        13.8009    35.7132    18.2173 H            1 COA601   0.0000
    60 HCP1        11.7877    32.9861    14.7006 H            1 COA601   0.0000
    61 HCP2        11.5209    34.2061    13.6484 H            1 COA601   0.0000
    62 HDP1        10.8034    31.5080    11.5542 H            1 COA601   0.0000
    63 HDP2        11.5651    32.9474    11.6751 H            1 COA601   0.0000
    64 HDP3        12.0677    31.6796    12.5734 H            1 COA601   0.0000
    65 HEP1         9.3773    30.6705    13.6345 H            1 COA601   0.0000
    66 HEP2        10.7175    30.8777    14.5442 H            1 COA601   0.0000
    67 HEP3         9.3289    31.6342    14.9519 H            1 COA601   0.0000
    68 HAP          8.4675    33.5508    13.4570 H            1 COA601   0.0000
    69 H10          8.9469    35.1954    12.3919 H            1 COA601   0.0000
    70 H8P          8.9351    33.2515    10.1138 H            1 COA601   0.0000
    71 H7P1         7.8112    32.0560     8.5117 H            1 COA601   0.0000
    72 H7P2         6.7445    31.5216     9.6267 H            1 COA601   0.0000
    73 H6P1         7.8029    29.6465     8.7059 H            1 COA601   0.0000
    74 H6P2         8.3339    29.7999    10.2425 H            1 COA601   0.0000
    75 H4P         10.0957    28.3491     9.3388 H            1 COA601   0.0000
    76 H3P1        12.4601    28.9807     9.5115 H            1 COA601   0.0000
    77 H3P2        12.1986    30.1280     8.3793 H            1 COA601   0.0000
    78 H2P1        11.7657    27.3799     7.7204 H            1 COA601   0.0000
    79 H2P2        13.2749    27.9991     7.6458 H            1 COA601   0.0000
    80 H110        13.3290    30.7110     5.8460 H            1 COA601   0.0000
@<TRIPOS>BOND
     1   47   78       1
     2   46   77       1
     3   46   76       1
     4   45   75       1
     5   42   74       1
     6   47   79       1
     7   42   73       1
     8   41   72       1
     9   48   80       1
    10    1    2      ar
    11    1    6      ar
    12    2    3      ar
    13    3    4      ar
    14    4    5      ar
    15    4   10       1
    16    5    6      ar
    17    5    8       1
    18    6    7       1
    19    8    9       2
    20    9   10       1
    21   10   11       1
    22   11   12       1
    23   11   21       1
    24   12   13       1
    25   12   14       1
    26   14   15       1
    27   14   20       1
    28   15   16       1
    29   16   17      ar
    30   16   18      ar
    31   16   19      ar
    32   20   21       1
    33   20   22       1
    34   22   23       1
    35   23   24       1
    36   24   25      ar
    37   24   26      ar
    38   24   27       1
    39   27   28       1
    40   28   29      ar
    41   28   30      ar
    42   28   31       1
    43   31   33       1
    44   32   33       1
    45   32   34       1
    46   32   35       1
    47   32   36       1
    48   36   37       1
    49   36   38       1
    50   38   39       2
    51   38   40      am
    52   40   41       1
    53   41   42       1
    54   42   43       1
    55   43   44       2
    56   43   45      am
    57   45   46       1
    58   46   47       1
    59   47   48       1
    60    2   49       1
    61    7   50       1
    62    7   51       1
    63    9   52       1
    64   11   53       1
    65   12   54       1
    66   13   55       1
    67   14   56       1
    68   41   71       1
    69   40   70       1
    70   20   57       1
    71   22   58       1
    72   22   59       1
    73   37   69       1
    74   36   68       1
    75   33   60       1
    76   33   61       1
    77   34   62       1
    78   34   63       1
    79   34   64       1
    80   35   65       1
    81   35   66       1
    82   35   67       1
@<TRIPOS>SUBSTRUCTURE
     1 COA601      1 GROUP             4 A     COA     0 **** COA A 601
