@<TRIPOS>MOLECULE
5dby_DIF_1_ligand
   29    30     1     0     0
SMALL
NO_CHARGES


@<TRIPOS>ATOM
     1 C1          36.7320    -3.9740    51.9430 C.ar         1 DIF601   0.0000
     2 C2          36.6590    -4.6030    53.1930 C.ar         1 DIF601   0.0000
     3 CL2         37.9990    -5.5610    53.8770 Cl           1 DIF601   0.0000
     4 C3          35.4500    -4.4970    54.0360 C.ar         1 DIF601   0.0000
     5 C4          34.3350    -3.7320    53.3950 C.ar         1 DIF601   0.0000
     6 CL4         32.7950    -3.5350    54.2640 Cl           1 DIF601   0.0000
     7 C5          34.4720    -3.1160    52.1430 C.ar         1 DIF601   0.0000
     8 C6          35.6580    -3.2350    51.4250 C.ar         1 DIF601   0.0000
     9 N1          35.3310    -5.3190    55.1320 N.pl3        1 DIF601   0.0000
    10 C7          34.9780    -7.4620    56.3860 C.ar         1 DIF601   0.0000
    11 C8          35.1490    -6.6990    55.0690 C.ar         1 DIF601   0.0000
    12 C9          35.0820    -7.4750    53.8940 C.ar         1 DIF601   0.0000
    13 C10         34.9010    -8.8680    53.9370 C.ar         1 DIF601   0.0000
    14 C11         34.7700    -9.5570    55.1460 C.ar         1 DIF601   0.0000
    15 C12         34.8090    -8.8590    56.3550 C.ar         1 DIF601   0.0000
    16 C13         35.0080    -6.8100    57.7730 C.3          1 DIF601   0.0000
    17 C14         33.9300    -5.7630    58.0690 C.2          1 DIF601   0.0000
    18 O1          33.5670    -5.6090    59.2750 O.co2        1 DIF601   0.0000
    19 O2          33.4480    -5.0690    57.1220 O.co2        1 DIF601  -1.0000
    20 H1          37.5718    -4.0540    51.4060 H            1 DIF601   0.0000
    21 H2          33.7125    -2.5877    51.7635 H            1 DIF601   0.0000
    22 H3          35.7453    -2.7906    50.5334 H            1 DIF601   0.0000
    23 H4          35.3784    -4.8969    56.0373 H            1 DIF601   0.0000
    24 H5          35.1655    -7.0222    53.0063 H            1 DIF601   0.0000
    25 H6          34.8649    -9.3804    53.0790 H            1 DIF601   0.0000
    26 H7          34.6484   -10.5496    55.1453 H            1 DIF601   0.0000
    27 H8          34.7151    -9.3611    57.2147 H            1 DIF601   0.0000
    28 H9          35.8978    -6.3661    57.8791 H            1 DIF601   0.0000
    29 H10         34.9160    -7.5387    58.4516 H            1 DIF601   0.0000
@<TRIPOS>BOND
     1    1    2      ar
     2    1    8      ar
     3    2    3       1
     4    2    4      ar
     5    4    5      ar
     6    4    9       1
     7    5    6       1
     8    5    7      ar
     9    7    8      ar
    10    9   11       1
    11   10   11      ar
    12   10   15      ar
    13   10   16       1
    14   11   12      ar
    15   12   13      ar
    16   13   14      ar
    17   14   15      ar
    18   16   17       1
    19   17   18      ar
    20   17   19      ar
    21    1   20       1
    22    7   21       1
    23    8   22       1
    24    9   23       1
    25   12   24       1
    26   13   25       1
    27   14   26       1
    28   15   27       1
    29   16   28       1
    30   16   29       1
@<TRIPOS>SUBSTRUCTURE
     1 DIF601      1 GROUP             4 A     DIF     0 **** DIF A 601
