@<TRIPOS>MOLECULE
1eah_SC4_1_ligand
   44    46     1     0     0
SMALL
NO_CHARGES


@<TRIPOS>ATOM
     1 C1          23.6750    85.8530    94.0490 C.ar         1 SC4999   0.0000
     2 C2          22.4410    86.4070    94.3180 C.ar         1 SC4999   0.0000
     3 C3          21.8840    86.3440    95.6250 C.ar         1 SC4999   0.0000
     4 C4          22.6040    85.7030    96.6800 C.ar         1 SC4999   0.0000
     5 CL1         21.9570    85.6240    98.3270 Cl           1 SC4999   0.0000
     6 CL2         11.3450    86.2760    95.4600 Cl           1 SC4999   0.0000
     7 CL3         14.5980    85.5730    99.9620 Cl           1 SC4999   0.0000
     8 C5          23.8600    85.1390    96.3910 C.ar         1 SC4999   0.0000
     9 C6          24.4060    85.2140    95.0570 C.ar         1 SC4999   0.0000
    10 O1          20.6450    86.9170    95.8310 O.3          1 SC4999   0.0000
    11 C7          19.8170    87.1470    94.6740 C.3          1 SC4999   0.0000
    12 C10         16.1120    87.9250    94.7920 C.ar         1 SC4999   0.0000
    13 C11         15.7500    87.2930    95.9810 C.ar         1 SC4999   0.0000
    14 C12         16.7030    86.6200    96.7310 C.ar         1 SC4999   0.0000
    15 C13         18.0140    86.5740    96.3050 C.ar         1 SC4999   0.0000
    16 C8          18.3860    87.2060    95.1150 C.ar         1 SC4999   0.0000
    17 C9          17.4350    87.8800    94.3590 C.ar         1 SC4999   0.0000
    18 O3          25.6480    84.6170    94.8700 O.3          1 SC4999   0.0000
    19 C21         26.4980    84.8840    93.7350 C.3          1 SC4999   0.0000
    20 C14         14.3400    87.3370    96.4550 C.3          1 SC4999   0.0000
    21 O2          14.0050    86.0570    96.9950 O.3          1 SC4999   0.0000
    22 C16         11.5600    86.0750    97.1920 C.ar         1 SC4999   0.0000
    23 C17         10.4210    85.9920    98.0130 C.ar         1 SC4999   0.0000
    24 C18         10.5600    85.7970    99.4180 C.ar         1 SC4999   0.0000
    25 C19         11.8550    85.6830   100.0100 C.ar         1 SC4999   0.0000
    26 C20         13.0160    85.7620    99.2080 C.ar         1 SC4999   0.0000
    27 C15         12.8810    85.9670    97.7860 C.ar         1 SC4999   0.0000
    28 H1          24.0513    85.9084    93.1242 H            1 SC4999   0.0000
    29 H2          21.9318    86.8584    93.5852 H            1 SC4999   0.0000
    30 H3          24.3780    84.6830    97.1147 H            1 SC4999   0.0000
    31 H4          19.9375    86.4005    94.0196 H            1 SC4999   0.0000
    32 H5          20.0728    88.0124    94.2432 H            1 SC4999   0.0000
    33 H6          15.4237    88.4092    94.2517 H            1 SC4999   0.0000
    34 H7          16.4390    86.1671    97.5826 H            1 SC4999   0.0000
    35 H8          18.6990    86.0881    96.8479 H            1 SC4999   0.0000
    36 H9          17.6995    88.3313    93.5068 H            1 SC4999   0.0000
    37 H10         27.3364    84.3445    93.8122 H            1 SC4999   0.0000
    38 H11         26.0182    84.6357    92.8935 H            1 SC4999   0.0000
    39 H12         26.7285    85.8568    93.7127 H            1 SC4999   0.0000
    40 H13         13.7329    87.5499    95.6894 H            1 SC4999   0.0000
    41 H14         14.2432    88.0376    97.1620 H            1 SC4999   0.0000
    42 H15          9.5095    86.0702    97.6091 H            1 SC4999   0.0000
    43 H16          9.7445    85.7395    99.9939 H            1 SC4999   0.0000
    44 H17         11.9405    85.5466   100.9970 H            1 SC4999   0.0000
@<TRIPOS>BOND
     1    1    2      ar
     2    1    9      ar
     3    2    3      ar
     4    3    4      ar
     5    3   10       1
     6    4    5       1
     7    4    8      ar
     8    6   22       1
     9    7   26       1
    10    8    9      ar
    11    9   18       1
    12   10   11       1
    13   11   16       1
    14   12   13      ar
    15   12   17      ar
    16   13   14      ar
    17   13   20       1
    18   14   15      ar
    19   15   16      ar
    20   16   17      ar
    21   18   19       1
    22   20   21       1
    23   21   27       1
    24   22   23      ar
    25   22   27      ar
    26   23   24      ar
    27   24   25      ar
    28   25   26      ar
    29   26   27      ar
    30    1   28       1
    31    2   29       1
    32    8   30       1
    33   11   31       1
    34   11   32       1
    35   12   33       1
    36   14   34       1
    37   15   35       1
    38   17   36       1
    39   19   37       1
    40   19   38       1
    41   19   39       1
    42   20   40       1
    43   20   41       1
    44   23   42       1
    45   24   43       1
    46   25   44       1
@<TRIPOS>SUBSTRUCTURE
     1 SC4999      1 GROUP             4 1     SC4     0 **** SC4 1 999
