@<TRIPOS>MOLECULE
5azg_ASP_PHE_THR_PHE_LEU_1_ligand
   88    89     5     0     0
SMALL
NO_CHARGES


@<TRIPOS>ATOM
     1 N            7.5190    30.9150    15.2310 N.4          1 ASP357   1.0000
     2 CA           8.5660    30.9590    16.2880 C.3          1 ASP357   0.0000
     3 C            8.8650    29.5360    16.7670 C.2          1 ASP357   0.0000
     4 O            8.0060    28.6620    16.6930 O.2          1 ASP357   0.0000
     5 CB           8.0990    31.8320    17.4640 C.3          1 ASP357   0.0000
     6 CG           9.1320    32.8730    17.8770 C.2          1 ASP357   0.0000
     7 OD1          9.5770    33.6470    17.0050 O.co2        1 ASP357   0.0000
     8 OD2          9.4830    32.9350    19.0760 O.co2        1 ASP357  -1.0000
     9 H1           7.8347    30.3447    14.4727 H            1 ASP357   0.0000
    10 H2           6.6781    30.5292    15.6106 H            1 ASP357   0.0000
    11 HA           9.4000    31.3535    15.9023 H            1 ASP357   0.0000
    12 HB1          7.9129    31.2389    18.2474 H            1 ASP357   0.0000
    13 HB2          7.2592    32.3045    17.1967 H            1 ASP357   0.0000
    14 N           10.0760    29.3230    17.2730 N.am         2 PHE358   0.0000
    15 CA          10.5160    27.9990    17.7300 C.3          2 PHE358   0.0000
    16 C            9.9150    27.6240    19.0800 C.2          2 PHE358   0.0000
    17 O            9.7520    28.4730    19.9590 O.2          2 PHE358   0.0000
    18 CB          12.0400    27.9350    17.8440 C.3          2 PHE358   0.0000
    19 CG          12.7450    27.9390    16.5270 C.ar         2 PHE358   0.0000
    20 CD1         13.0210    29.1370    15.8780 C.ar         2 PHE358   0.0000
    21 CD2         13.1390    26.7440    15.9300 C.ar         2 PHE358   0.0000
    22 CE1         13.6720    29.1470    14.6580 C.ar         2 PHE358   0.0000
    23 CE2         13.7920    26.7480    14.7070 C.ar         2 PHE358   0.0000
    24 CZ          14.0610    27.9550    14.0720 C.ar         2 PHE358   0.0000
    25 H6          10.7103    30.0928    17.3449 H            2 PHE358   0.0000
    26 H7          10.2227    27.3207    17.0563 H            2 PHE358   0.0000
    27 H8          12.2846    27.0959    18.3298 H            2 PHE358   0.0000
    28 H9          12.3502    28.7270    18.3698 H            2 PHE358   0.0000
    29 HD1         12.7456    30.0016    16.2983 H            2 PHE358   0.0000
    30 HD2         12.9492    25.8753    16.3876 H            2 PHE358   0.0000
    31 HE1         13.8616    30.0151    14.1993 H            2 PHE358   0.0000
    32 HE2         14.0686    25.8855    14.2831 H            2 PHE358   0.0000
    33 HZ          14.5356    27.9620    13.1918 H            2 PHE358   0.0000
    34 N            9.6100    26.3400    19.2370 N.am         3 THR359   0.0000
    35 CA           9.1480    25.7890    20.5030 C.3          3 THR359   0.0000
    36 C           10.3370    25.1680    21.2300 C.2          3 THR359   0.0000
    37 O           11.0440    24.3360    20.6660 O.2          3 THR359   0.0000
    38 CB           8.0550    24.7300    20.2770 C.3          3 THR359   0.0000
    39 OG1          6.9300    25.3440    19.6290 O.3          3 THR359   0.0000
    40 CG2          7.6050    24.1120    21.6000 C.3          3 THR359   0.0000
    41 H15          9.7017    25.7265    18.4526 H            3 THR359   0.0000
    42 H16          8.7741    26.5285    21.0628 H            3 THR359   0.0000
    43 HB           8.4173    24.0086    19.6868 H            3 THR359   0.0000
    44 HG1          7.2178    25.7225    18.7493 H            3 THR359   0.0000
    45 HG21         6.8961    23.4288    21.4247 H            3 THR359   0.0000
    46 HG22         8.3859    23.6751    22.0465 H            3 THR359   0.0000
    47 HG23         7.2385    24.8276    22.1946 H            3 THR359   0.0000
    48 N           10.5470    25.5730    22.4810 N.am         4 PHE360   0.0000
    49 CA          11.6270    25.0340    23.3110 C.3          4 PHE360   0.0000
    50 C           11.1440    23.7580    23.9880 C.2          4 PHE360   0.0000
    51 O           10.0880    23.7640    24.6280 O.2          4 PHE360   0.0000
    52 CB          12.0570    26.0490    24.3810 C.3          4 PHE360   0.0000
    53 CG          12.8340    27.2160    23.8400 C.ar         4 PHE360   0.0000
    54 CD1         12.1980    28.2200    23.1120 C.ar         4 PHE360   0.0000
    55 CD2         14.2040    27.3250    24.0670 C.ar         4 PHE360   0.0000
    56 CE1         12.9140    29.3010    22.6170 C.ar         4 PHE360   0.0000
    57 CE2         14.9250    28.4070    23.5720 C.ar         4 PHE360   0.0000
    58 CZ          14.2750    29.3930    22.8460 C.ar         4 PHE360   0.0000
    59 H22          9.9449    26.2712    22.8684 H            4 PHE360   0.0000
    60 H23         12.4114    24.8193    22.7291 H            4 PHE360   0.0000
    61 H24         12.6274    25.5756    25.0522 H            4 PHE360   0.0000
    62 H25         11.2351    26.3996    24.8301 H            4 PHE360   0.0000
    63 H26         11.2139    28.1608    22.9443 H            4 PHE360   0.0000
    64 H27         14.6753    26.6166    24.5924 H            4 PHE360   0.0000
    65 H28         12.4458    30.0136    22.0946 H            4 PHE360   0.0000
    66 H29         15.9087    28.4732    23.7393 H            4 PHE360   0.0000
    67 H30         14.7905    30.1714    22.4876 H            4 PHE360   0.0000
    68 N           11.9060    22.6720    23.8420 N.am         5 LEU361   0.0000
    69 CA          11.6310    21.4130    24.5470 C.3          5 LEU361   0.0000
    70 C           12.6380    21.1980    25.6810 C.2          5 LEU361   0.0000
    71 O           12.5550    20.2320    26.4440 O.co2        5 LEU361   0.0000
    72 CB          11.6560    20.2320    23.5680 C.3          5 LEU361   0.0000
    73 CG          10.5630    20.2130    22.4910 C.3          5 LEU361   0.0000
    74 CD1         10.7660    19.0500    21.5340 C.3          5 LEU361   0.0000
    75 CD2          9.1690    20.1420    23.0990 C.3          5 LEU361   0.0000
    76 OXT         13.5630    21.9890    25.8740 O.co2        5 LEU361  -1.0000
    77 H31         12.6947    22.7172    23.2289 H            5 LEU361   0.0000
    78 H32         10.7160    21.4703    24.9464 H            5 LEU361   0.0000
    79 H33         11.5699    19.3917    24.1032 H            5 LEU361   0.0000
    80 H34         12.5411    20.2417    23.1027 H            5 LEU361   0.0000
    81 HG          10.6297    21.0617    21.9663 H            5 LEU361   0.0000
    82 HD11        10.0438    19.0575    20.8423 H            5 LEU361   0.0000
    83 HD12        11.6564    19.1374    21.0872 H            5 LEU361   0.0000
    84 HD13        10.7314    18.1898    22.0427 H            5 LEU361   0.0000
    85 HD21         8.4867    20.1315    22.3680 H            5 LEU361   0.0000
    86 HD22         9.0855    19.3083    23.6449 H            5 LEU361   0.0000
    87 HD23         9.0192    20.9395    23.6834 H            5 LEU361   0.0000
    88 H42          7.3408    31.8415    14.8996 H            5 LEU361   0.0000
@<TRIPOS>BOND
     1    1    2       1
     2    2    5       1
     3    2    3       1
     4    5    6       1
     5    6    7      ar
     6    6    8      ar
     7    3    4       2
     8    1    9       1
     9    1   10       1
    10    2   11       1
    11    3   14      am
    12    5   12       1
    13    5   13       1
    14   14   15       1
    15   15   18       1
    16   15   16       1
    17   18   19       1
    18   19   20      ar
    19   19   21      ar
    20   20   22      ar
    21   22   24      ar
    22   24   23      ar
    23   23   21      ar
    24   16   17       2
    25   24   33       1
    26   14   25       1
    27   15   26       1
    28   16   34      am
    29   18   27       1
    30   18   28       1
    31   20   29       1
    32   21   30       1
    33   22   31       1
    34   23   32       1
    35   34   35       1
    36   35   38       1
    37   35   36       1
    38   38   40       1
    39   38   39       1
    40   36   37       2
    41   40   47       1
    42   34   41       1
    43   35   42       1
    44   36   48      am
    45   38   43       1
    46   39   44       1
    47   40   45       1
    48   40   46       1
    49   48   49       1
    50   49   52       1
    51   49   50       1
    52   52   53       1
    53   53   54      ar
    54   53   55      ar
    55   54   56      ar
    56   56   58      ar
    57   58   57      ar
    58   57   55      ar
    59   50   51       2
    60   58   67       1
    61   48   59       1
    62   49   60       1
    63   50   68      am
    64   52   61       1
    65   52   62       1
    66   54   63       1
    67   55   64       1
    68   56   65       1
    69   57   66       1
    70   68   69       1
    71   69   72       1
    72   69   70       1
    73   72   73       1
    74   73   74       1
    75   73   75       1
    76   70   71      ar
    77   70   76      ar
    78   75   87       1
    79   68   77       1
    80   69   78       1
    81   72   79       1
    82   72   80       1
    83   73   81       1
    84   74   82       1
    85   74   83       1
    86   74   84       1
    87   75   85       1
    88   75   86       1
    89    1   88       1
@<TRIPOS>SUBSTRUCTURE
     1 ASP357      1 RESIDUE           4 C     ASP     0 **** ASP C 357
     2 PHE358     14 RESIDUE           4 C     PHE     0 **** PHE C 358
     3 THR359     34 RESIDUE           4 C     THR     0 **** THR C 359
     4 PHE360     48 RESIDUE           4 C     PHE     0 **** PHE C 360
     5 LEU361     68 RESIDUE           4 C     LEU     0 **** LEU C 361
