@<TRIPOS>MOLECULE
2eix_FAD_2_ligand
   84    89     1     0     0
SMALL
NO_CHARGES


@<TRIPOS>ATOM
     1 PA          -1.7650   -21.3290   -18.4380 P.3          1 FAD1302   0.0000
     2 O1A         -0.4860   -21.9240   -18.3070 O.co2        1 FAD1302   0.0000
     3 O2A         -2.2850   -20.6060   -17.2110 O.co2        1 FAD1302  -1.0000
     4 O5B         -1.8460   -20.6190   -19.9230 O.3          1 FAD1302   0.0000
     5 C5B         -2.9530   -19.7580   -20.1870 C.3          1 FAD1302   0.0000
     6 C4B         -2.6130   -18.8290   -21.3240 C.3          1 FAD1302   0.0000
     7 O4B         -1.4800   -18.0950   -20.8860 O.3          1 FAD1302   0.0000
     8 C3B         -2.1420   -19.5610   -22.5450 C.3          1 FAD1302   0.0000
     9 O3B         -3.2840   -19.7840   -23.3700 O.3          1 FAD1302   0.0000
    10 C2B         -1.1640   -18.5390   -23.1290 C.3          1 FAD1302   0.0000
    11 O2B         -1.8560   -17.6070   -23.9770 O.3          1 FAD1302   0.0000
    12 C1B         -0.5780   -17.8220   -21.9210 C.3          1 FAD1302   0.0000
    13 N9A          0.7040   -18.4830   -21.6140 N.pl3        1 FAD1302   0.0000
    14 C8A          0.9680   -19.8220   -21.4420 C.2          1 FAD1302   0.0000
    15 N7A          2.2610   -20.0090   -21.1830 N.2          1 FAD1302   0.0000
    16 C5A          2.8820   -18.7980   -21.1210 C.ar         1 FAD1302   0.0000
    17 C6A          4.2390   -18.4040   -20.9190 C.ar         1 FAD1302   0.0000
    18 N6A          5.2600   -19.2940   -20.8700 N.pl3        1 FAD1302   0.0000
    19 N1A          4.4470   -17.0500   -20.9740 N.ar         1 FAD1302   0.0000
    20 C2A          3.4380   -16.1180   -21.2210 C.ar         1 FAD1302   0.0000
    21 N3A          2.1430   -16.5070   -21.4350 N.ar         1 FAD1302   0.0000
    22 C4A          1.8960   -17.8330   -21.4160 C.ar         1 FAD1302   0.0000
    23 N1          -9.3690   -23.1900   -13.6350 N.2          1 FAD1302   0.0000
    24 C2         -10.4470   -23.9320   -14.0920 C.2          1 FAD1302   0.0000
    25 O2         -10.5170   -24.0850   -15.3090 O.2          1 FAD1302   0.0000
    26 N3         -11.3620   -24.4650   -13.1680 N.pl3        1 FAD1302   0.0000
    27 C4         -11.2440   -24.2280   -11.8280 C.2          1 FAD1302   0.0000
    28 O4         -12.0920   -24.7280   -11.0750 O.2          1 FAD1302   0.0000
    29 C4X        -10.1580   -23.4880   -11.3710 C.2          1 FAD1302   0.0000
    30 N5         -10.0720   -23.2820   -10.0060 N.2          1 FAD1302   0.0000
    31 C5X         -9.0190   -22.5200    -9.6130 C.ar         1 FAD1302   0.0000
    32 C6          -8.9470   -22.2770    -8.2440 C.ar         1 FAD1302   0.0000
    33 C7          -7.9230   -21.5120    -7.7390 C.ar         1 FAD1302   0.0000
    34 C7M         -7.8620   -21.3030    -6.2790 C.3          1 FAD1302   0.0000
    35 C8          -6.9920   -20.9270    -8.5460 C.ar         1 FAD1302   0.0000
    36 C8M         -5.8880   -20.0820    -7.9910 C.3          1 FAD1302   0.0000
    37 C9          -7.0670   -21.1340    -9.9040 C.ar         1 FAD1302   0.0000
    38 C9A         -8.0790   -21.9340   -10.4590 C.ar         1 FAD1302   0.0000
    39 N10         -8.1510   -22.1900   -11.8260 N.pl3        1 FAD1302   0.0000
    40 C10         -9.2210   -22.9620   -12.2590 C.2          1 FAD1302   0.0000
    41 C1'         -7.0340   -21.8790   -12.8090 C.3          1 FAD1302   0.0000
    42 C2'         -5.9500   -22.9510   -12.9320 C.3          1 FAD1302   0.0000
    43 O2'         -5.1790   -23.0510   -11.7460 O.3          1 FAD1302   0.0000
    44 C3'         -5.0130   -22.6950   -14.1400 C.3          1 FAD1302   0.0000
    45 O3'         -4.5180   -21.3760   -13.9740 O.3          1 FAD1302   0.0000
    46 C4'         -5.8010   -22.8720   -15.4570 C.3          1 FAD1302   0.0000
    47 O4'         -6.3440   -24.1840   -15.5220 O.3          1 FAD1302   0.0000
    48 C5'         -4.9740   -22.6570   -16.7400 C.3          1 FAD1302   0.0000
    49 O5'         -3.7760   -23.4260   -16.6360 O.3          1 FAD1302   0.0000
    50 P           -3.0940   -23.9050   -17.9860 P.3          1 FAD1302   0.0000
    51 O1P         -1.8610   -24.6700   -17.6280 O.co2        1 FAD1302   0.0000
    52 O2P         -4.0820   -24.6240   -18.8170 O.co2        1 FAD1302  -1.0000
    53 O3P         -2.7770   -22.5580   -18.8130 O.3          1 FAD1302   0.0000
    54 H5B1        -3.1591   -19.2209   -19.3690 H            1 FAD1302   0.0000
    55 H5B2        -3.7506   -20.3082   -20.4342 H            1 FAD1302   0.0000
    56 H4B         -3.3783   -18.2218   -21.5376 H            1 FAD1302   0.0000
    57 H3B         -1.6838   -20.4178   -22.3085 H            1 FAD1302   0.0000
    58 H5          -3.0035   -19.8025   -24.3297 H            1 FAD1302   0.0000
    59 H2B         -0.4414   -19.0035   -23.6410 H            1 FAD1302   0.0000
    60 H7          -1.7376   -16.6803   -23.6202 H            1 FAD1302   0.0000
    61 H1B         -0.4694   -16.8406   -22.0793 H            1 FAD1302   0.0000
    62 H8A          0.2863   -20.5511   -21.5028 H            1 FAD1302   0.0000
    63 H6A1         6.1963   -18.9734   -20.7264 H            1 FAD1302   0.0000
    64 H6A2         5.0770   -20.2712   -20.9774 H            1 FAD1302   0.0000
    65 H2A          3.6660   -15.1446   -21.2421 H            1 FAD1302   0.0000
    66 H13        -12.1170   -25.0309   -13.4993 H            1 FAD1302   0.0000
    67 H14         -9.6383   -22.6579    -7.6300 H            1 FAD1302   0.0000
    68 H7M1        -7.0718   -20.7318    -6.0568 H            1 FAD1302   0.0000
    69 H7M2        -8.6984   -20.8489    -5.9720 H            1 FAD1302   0.0000
    70 H7M3        -7.7744   -22.1867    -5.8191 H            1 FAD1302   0.0000
    71 H8M1        -5.3156   -19.7476    -8.7397 H            1 FAD1302   0.0000
    72 H8M2        -6.2788   -19.3050    -7.4975 H            1 FAD1302   0.0000
    73 H8M3        -5.3321   -20.6289    -7.3650 H            1 FAD1302   0.0000
    74 H21         -6.3906   -20.7083   -10.5051 H            1 FAD1302   0.0000
    75 H1'1        -6.5953   -21.0287   -12.5183 H            1 FAD1302   0.0000
    76 H1'2        -7.4445   -21.7506   -13.7118 H            1 FAD1302   0.0000
    77 H2'         -6.4038   -23.8302   -13.0773 H            1 FAD1302   0.0000
    78 H25         -5.5977   -23.7197   -11.1316 H            1 FAD1302   0.0000
    79 H3'         -4.2519   -23.3432   -14.1161 H            1 FAD1302   0.0000
    80 H27         -3.6050   -21.3095   -14.3764 H            1 FAD1302   0.0000
    81 H4'         -6.5583   -22.2190   -15.4592 H            1 FAD1302   0.0000
    82 H29         -7.1932   -24.1675   -16.0498 H            1 FAD1302   0.0000
    83 H5'1        -4.7464   -21.6881   -16.8370 H            1 FAD1302   0.0000
    84 H5'2        -5.5003   -22.9571   -17.5356 H            1 FAD1302   0.0000
@<TRIPOS>BOND
     1    1    2      ar
     2    1    3      ar
     3    1    4       1
     4    1   53       1
     5    4    5       1
     6    5    6       1
     7    6    7       1
     8    6    8       1
     9    7   12       1
    10    8    9       1
    11    8   10       1
    12   10   11       1
    13   10   12       1
    14   12   13       1
    15   13   14       1
    16   13   22       1
    17   14   15       2
    18   15   16       1
    19   16   17      ar
    20   16   22      ar
    21   17   18       1
    22   17   19      ar
    23   19   20      ar
    24   20   21      ar
    25   21   22      ar
    26   23   24       1
    27   23   40       2
    28   24   25       2
    29   24   26       1
    30   26   27       1
    31   27   28       2
    32   27   29       1
    33   29   30       2
    34   29   40       1
    35   30   31       1
    36   31   32      ar
    37   31   38      ar
    38   32   33      ar
    39   33   34       1
    40   33   35      ar
    41   35   36       1
    42   35   37      ar
    43   37   38      ar
    44   38   39       1
    45   39   40       1
    46   39   41       1
    47   41   42       1
    48   42   43       1
    49   42   44       1
    50   44   45       1
    51   44   46       1
    52   46   47       1
    53   46   48       1
    54   48   49       1
    55   49   50       1
    56   50   51      ar
    57   50   52      ar
    58   50   53       1
    59   48   84       1
    60    5   54       1
    61    5   55       1
    62    6   56       1
    63    8   57       1
    64    9   58       1
    65   10   59       1
    66   11   60       1
    67   12   61       1
    68   14   62       1
    69   18   63       1
    70   18   64       1
    71   20   65       1
    72   26   66       1
    73   32   67       1
    74   34   68       1
    75   34   69       1
    76   34   70       1
    77   36   71       1
    78   36   72       1
    79   36   73       1
    80   37   74       1
    81   41   75       1
    82   41   76       1
    83   42   77       1
    84   43   78       1
    85   44   79       1
    86   45   80       1
    87   46   81       1
    88   47   82       1
    89   48   83       1
@<TRIPOS>SUBSTRUCTURE
     1 FAD1302     1 GROUP             4 B     FAD     0 **** FAD B1302
