@<TRIPOS>MOLECULE
1juv_NDP_1_ligand
   73    77     1     0     0
SMALL
NO_CHARGES


@<TRIPOS>ATOM
     1 PA          32.7210    11.9320    74.2100 P.3          1 NDP194   0.0000
     2 O1A         32.4290    11.0220    73.1530 O.co2        1 NDP194   0.0000
     3 O2A         34.0340    12.5860    74.4890 O.co2        1 NDP194  -1.0000
     4 O5B         31.4490    13.0360    74.1630 O.3          1 NDP194   0.0000
     5 C5B         31.4850    14.2360    74.9220 C.3          1 NDP194   0.0000
     6 C4B         30.0900    14.9340    74.8040 C.3          1 NDP194   0.0000
     7 O4B         30.2770    16.1880    75.4720 O.3          1 NDP194   0.0000
     8 C3B         29.2630    15.1100    73.5830 C.3          1 NDP194   0.0000
     9 O3B         28.2410    14.0840    73.4450 O.3          1 NDP194   0.0000
    10 C2B         28.5060    16.4140    73.8740 C.3          1 NDP194   0.0000
    11 O2B         27.2390    16.3850    74.5730 O.3          1 NDP194   0.0000
    12 C1B         29.4910    17.1130    74.7400 C.3          1 NDP194   0.0000
    13 N9A         30.2200    18.1960    73.9770 N.pl3        1 NDP194   0.0000
    14 C8A         30.3880    18.3610    72.5750 C.2          1 NDP194   0.0000
    15 N7A         31.0690    19.4550    72.2970 N.2          1 NDP194   0.0000
    16 C5A         31.3630    20.0390    73.4990 C.ar         1 NDP194   0.0000
    17 C6A         32.0510    21.2130    73.8800 C.ar         1 NDP194   0.0000
    18 N6A         32.5740    22.0120    72.9500 N.pl3        1 NDP194   0.0000
    19 N1A         32.1710    21.5190    75.2000 N.ar         1 NDP194   0.0000
    20 C2A         31.6350    20.7040    76.1350 C.ar         1 NDP194   0.0000
    21 N3A         30.9630    19.5720    75.8840 N.ar         1 NDP194   0.0000
    22 C4A         30.8600    19.2890    74.5310 C.ar         1 NDP194   0.0000
    23 O3          32.4320    11.0140    75.4760 O.3          1 NDP194   0.0000
    24 PN          31.1890    10.2710    76.2030 P.3          1 NDP194   0.0000
    25 O1N         30.5990     9.3060    75.2520 O.co2        1 NDP194   0.0000
    26 O2N         30.3550    11.3170    76.8370 O.co2        1 NDP194  -1.0000
    27 O5D         31.8980     9.4700    77.3730 O.3          1 NDP194   0.0000
    28 C5D         32.6000    10.0990    78.4750 C.3          1 NDP194   0.0000
    29 C4D         33.0160     8.9210    79.3780 C.3          1 NDP194   0.0000
    30 O4D         33.9710     8.1260    78.7280 O.3          1 NDP194   0.0000
    31 C3D         33.7020     9.4170    80.6320 C.3          1 NDP194   0.0000
    32 O3D         33.0740     8.8310    81.7650 O.3          1 NDP194   0.0000
    33 C2D         35.1700     9.0960    80.4840 C.3          1 NDP194   0.0000
    34 O2D         35.7360     8.8530    81.7600 O.3          1 NDP194   0.0000
    35 C1D         34.9580     7.7460    79.6810 C.3          1 NDP194   0.0000
    36 N1N         36.1410     7.3110    78.9110 N.ar         1 NDP194   1.0000
    37 C2N         36.3200     5.9310    78.9130 C.ar         1 NDP194   0.0000
    38 C3N         37.4270     5.4160    78.1680 C.ar         1 NDP194   0.0000
    39 C7N         37.6250     3.9700    78.1440 C.2          1 NDP194   0.0000
    40 O7N         38.4573     3.4037    77.3944 O.2          1 NDP194   0.0000
    41 N7N         36.8762     3.1878    78.9221 N.am         1 NDP194   0.0000
    42 C4N         38.2670     6.3090    77.4830 C.ar         1 NDP194   0.0000
    43 C5N         38.0740     7.6660    77.4960 C.ar         1 NDP194   0.0000
    44 C6N         37.0020     8.1770    78.2110 C.ar         1 NDP194   0.0000
    45 P2B         25.8440    15.8260    74.1140 P.3          1 NDP194   0.0000
    46 O1X         25.7260    14.3980    74.6130 O.co2        1 NDP194   0.0000
    47 O2X         25.7380    15.9560    72.6030 O.co2        1 NDP194  -1.0000
    48 O3X         24.8330    16.7160    74.7930 O.co2        1 NDP194  -1.0000
    49 H5B1        32.1969    14.8407    74.5649 H            1 NDP194   0.0000
    50 H5B2        31.6772    14.0243    75.8803 H            1 NDP194   0.0000
    51 H4B         29.5030    14.4126    75.4234 H            1 NDP194   0.0000
    52 H3B         29.8271    15.1844    72.7607 H            1 NDP194   0.0000
    53 H5          27.4028    14.3851    73.8998 H            1 NDP194   0.0000
    54 H2B         28.3979    16.9265    73.0221 H            1 NDP194   0.0000
    55 H1B         28.9447    17.5950    75.4250 H            1 NDP194   0.0000
    56 H8A         30.0344    17.7274    71.8868 H            1 NDP194   0.0000
    57 H6A1        33.0607    22.8426    73.2206 H            1 NDP194   0.0000
    58 H6A2        32.4797    21.7808    71.9817 H            1 NDP194   0.0000
    59 H2A         31.7491    20.9671    77.0930 H            1 NDP194   0.0000
    60 H5D1        31.9977    10.7277    78.9668 H            1 NDP194   0.0000
    61 H5D2        33.4036    10.5955    78.1467 H            1 NDP194   0.0000
    62 H4D         32.2157     8.3713    79.6176 H            1 NDP194   0.0000
    63 H3D         33.5949    10.4099    80.6843 H            1 NDP194   0.0000
    64 H16         32.7039     9.5519    82.3510 H            1 NDP194   0.0000
    65 H2D         35.6694     9.7866    79.9609 H            1 NDP194   0.0000
    66 H18         36.7079     8.6408    81.6586 H            1 NDP194   0.0000
    67 H1D         34.6247     7.0164    80.2782 H            1 NDP194   0.0000
    68 H2N         35.7014     5.3255    79.4137 H            1 NDP194   0.0000
    69 H7N1        36.9746     2.1938    78.8745 H            1 NDP194   0.0000
    70 H7N2        36.2162     3.5952    79.5534 H            1 NDP194   0.0000
    71 H4N         39.0379     5.9395    76.9642 H            1 NDP194   0.0000
    72 H5N         38.6935     8.2745    77.0001 H            1 NDP194   0.0000
    73 H6N         36.8399     9.1636    78.2295 H            1 NDP194   0.0000
@<TRIPOS>BOND
     1    1    2      ar
     2    1    3      ar
     3    1    4       1
     4    1   23       1
     5    4    5       1
     6    5    6       1
     7    6    7       1
     8    6    8       1
     9    7   12       1
    10    8    9       1
    11    8   10       1
    12   10   11       1
    13   10   12       1
    14   11   45       1
    15   12   13       1
    16   13   14       1
    17   13   22       1
    18   14   15       2
    19   15   16       1
    20   16   17      ar
    21   16   22      ar
    22   17   18       1
    23   17   19      ar
    24   19   20      ar
    25   20   21      ar
    26   21   22      ar
    27   23   24       1
    28   24   25      ar
    29   24   26      ar
    30   24   27       1
    31   27   28       1
    32   28   29       1
    33   29   30       1
    34   29   31       1
    35   30   35       1
    36   31   32       1
    37   31   33       1
    38   33   34       1
    39   33   35       1
    40   35   36       1
    41   36   37      ar
    42   36   44      ar
    43   37   38      ar
    44   38   39       1
    45   38   42      ar
    46   39   40       2
    47   39   41      am
    48   42   43      ar
    49   43   44      ar
    50   45   46      ar
    51   45   47      ar
    52   45   48      ar
    53   43   72       1
    54    5   49       1
    55    5   50       1
    56    6   51       1
    57    8   52       1
    58    9   53       1
    59   10   54       1
    60   12   55       1
    61   14   56       1
    62   18   57       1
    63   18   58       1
    64   20   59       1
    65   44   73       1
    66   28   60       1
    67   28   61       1
    68   29   62       1
    69   31   63       1
    70   32   64       1
    71   33   65       1
    72   34   66       1
    73   35   67       1
    74   37   68       1
    75   41   69       1
    76   41   70       1
    77   42   71       1
@<TRIPOS>SUBSTRUCTURE
     1 NDP194      1 GROUP             4 A     NDP     0 **** NDP A 194
