@<TRIPOS>MOLECULE
./coach420/2qwi/ligand.pdb
 108 110 0 0 0
SMALL
GASTEIGER

@<TRIPOS>ATOM
      1  C1        39.8140    1.6450   58.7100 C.3   469  NAG469      0.1665
      2  C2        40.6180    1.1840   59.9210 C.3   469  NAG469      0.1575
      3  C3        41.6850    0.1240   59.6520 C.3   469  NAG469      0.2037
      4  C4        41.0680   -0.9710   58.6180 C.3   469  NAG469      0.1794
      5  C5        40.3080   -0.2960   57.4140 C.3   469  NAG469      0.1777
      6  C6        39.6400   -1.2900   56.5200 C.3   469  NAG469      0.2140
      7  C7        41.4670    2.6530   61.5450 C.2   469  NAG469      0.2420
      8  C8        42.1260    3.9340   61.9760 C.3   469  NAG469      0.0964
      9  N2        41.2840    2.4250   60.2520 N.am  469  NAG469     -0.2019
     10  O3        41.9950   -0.4000   60.9720 O.3   469  NAG469     -0.2185
     11  O4        42.0450   -1.9000   57.9760 O.3   469  NAG469     -0.3264
     12  O5        39.3170    0.5270   57.9650 O.3   469  NAG469     -0.3491
     13  O6        38.8150   -2.1410   57.3130 O.3   469  NAG469     -0.2176
     14  O7        41.1520    1.8390   62.4300 O.2   469  NAG469     -0.2733
     15  C1        41.7490   -3.2900   58.0040 C.3   470  NAG470      0.2586
     16  C2        42.4530   -4.1250   57.0430 C.3   470  NAG470      0.1841
     17  C3        42.1730   -5.5550   57.2220 C.3   470  NAG470      0.2062
     18  C4        42.3800   -5.8930   58.6840 C.3   470  NAG470      0.1796
     19  C5        41.6230   -4.9740   59.5710 C.3   470  NAG470      0.1803
     20  C6        41.8900   -5.2290   61.0040 C.3   470  NAG470      0.2141
     21  C7        42.6150   -2.9400   54.9750 C.2   470  NAG470      0.2420
     22  C8        42.1570   -2.6870   53.5200 C.3   470  NAG470      0.0964
     23  N2        42.0430   -3.8690   55.7250 N.am  470  NAG470     -0.1992
     24  O3        42.9230   -6.3850   56.3530 O.3   470  NAG470     -0.2184
     25  O4        41.9510   -7.1770   59.0340 O.3   470  NAG470     -0.3258
     26  O5        42.0350   -3.6820   59.3140 O.3   470  NAG470     -0.3263
     27  O6        43.3100   -5.3180   61.1870 O.3   470  NAG470     -0.2176
     28  O7        43.4920   -2.2100   55.4180 O.2   470  NAG470     -0.2733
     29  C1        42.8930   -8.1110   59.4690 C.3   471  BMA471      0.2694
     30  C2        42.1430   -9.3260   60.0440 C.3   471  BMA471      0.2374
     31  C3        43.1690  -10.4430   60.3440 C.3   471  BMA471      0.1858
     32  C4        43.9770  -10.7420   59.0430 C.3   471  BMA471      0.2113
     33  C5        44.6740   -9.5000   58.5700 C.3   471  BMA471      0.1834
     34  C6        45.4780   -9.7950   57.3340 C.3   471  BMA471      0.2142
     35  O2        41.1770   -9.7890   59.1040 O.3   471  BMA471     -0.2150
     36  O3        42.5290  -11.6540   60.7880 O.3   471  BMA471     -0.3256
     37  O4        44.9460  -11.7620   59.2420 O.3   471  BMA471     -0.2177
     38  O5        43.6680   -8.4820   58.3030 O.3   471  BMA471     -0.3256
     39  O6        46.2400   -8.6250   57.0580 O.3   471  BMA471     -0.2176
     40  C1        43.1070  -12.3210   61.7920 C.3   472  MAN472      0.2663
     41  C2        42.4500  -13.5890   61.8860 C.3   472  MAN472      0.2066
     42  C3        41.0050  -13.3140   62.4760 C.3   472  MAN472      0.2166
     43  C4        41.0180  -12.5950   63.8070 C.3   472  MAN472      0.2143
     44  C5        41.6560  -11.3710   63.5280 C.3   472  MAN472      0.1835
     45  C6        41.7570  -10.7280   64.8660 C.3   472  MAN472      0.2142
     46  O2        43.3390  -14.3020   62.7750 O.3   472  MAN472     -0.3232
     47  O3        40.2820  -14.4970   62.7270 O.3   472  MAN472     -0.2175
     48  O4        39.7400  -12.3850   64.4120 O.3   472  MAN472     -0.2176
     49  O5        42.9490  -11.6260   62.9860 O.3   472  MAN472     -0.3257
     50  O6        42.5290   -9.5700   64.7160 O.3   472  MAN472     -0.2176
     51  C1        42.9750  -15.6400   63.2440 C.3   473  MAN473      0.2664
     52  C2        43.9170  -15.9590   64.4050 C.3   473  MAN473      0.2066
     53  C3        45.3500  -15.9930   63.8890 C.3   473  MAN473      0.2166
     54  C4        45.4590  -16.9570   62.6610 C.3   473  MAN473      0.2143
     55  C5        44.3720  -16.6420   61.6040 C.3   473  MAN473      0.1835
     56  C6        44.3680  -17.6420   60.4790 C.3   473  MAN473      0.2142
     57  O2        43.5610  -17.2480   64.9690 O.3   473  MAN473     -0.3231
     58  O3        46.1040  -16.4690   64.9700 O.3   473  MAN473     -0.2175
     59  O4        46.7230  -16.9090   61.9950 O.3   473  MAN473     -0.2176
     60  O5        43.0560  -16.6560   62.2130 O.3   473  MAN473     -0.3257
     61  O6        44.0400  -18.9090   60.9910 O.3   473  MAN473     -0.2176
     62  C1        42.9890  -17.2010   66.2150 C.3   474  MAN474      0.2696
     63  C2        42.8180  -18.6330   66.6090 C.3   474  MAN474      0.2406
     64  C3        41.7340  -19.3520   65.8310 C.3   474  MAN474      0.2198
     65  C4        40.4040  -18.5750   65.9270 C.3   474  MAN474      0.2144
     66  C5        40.6950  -17.1590   65.3640 C.3   474  MAN474      0.1835
     67  C6        39.5040  -16.2550   65.3860 C.3   474  MAN474      0.2142
     68  O2        42.3990  -18.5970   67.9610 O.3   474  MAN474     -0.2149
     69  O3        41.5190  -20.6630   66.3820 O.3   474  MAN474     -0.2174
     70  O4        39.4030  -19.2810   65.2770 O.3   474  MAN474     -0.2176
     71  O5        41.7270  -16.5230   66.1730 O.3   474  MAN474     -0.3256
     72  O6        38.9990  -16.1810   66.6910 O.3   474  MAN474     -0.2176
     73  C2        15.3590   17.1950   28.7250 C.3   476  NAG476      0.1506
     74  C3        15.7700   15.9220   27.9880 C.3   476  NAG476      0.2063
     75  C4        16.7850   16.3290   26.9140 C.3   476  NAG476      0.2166
     76  C5        17.9380   17.0940   27.5950 C.3   476  NAG476      0.2175
     77  C6        18.8750   17.6660   26.4800 C.3   476  NAG476      0.2175
     78  C7        13.1350   16.9940   29.5970 C.2   476  NAG476      0.2419
     79  C8        12.3050   16.5590   30.7990 C.3   476  NAG476      0.0964
     80  N2        14.4390   16.8470   29.7580 N.am  476  NAG476     -0.2026
     81  O3        14.6610   15.2070   27.4070 O.3   476  NAG476     -0.2184
     82  O4        17.2940   15.2020   26.1450 O.3   476  NAG476     -0.2175
     83  O5        17.4230   18.2090   28.3320 O.3   476  NAG476     -0.2175
     84  O6        19.7130   18.7660   26.8840 O.3   476  NAG476     -0.2175
     85  O7        12.6460   17.4850   28.5750 O.2   476  NAG476     -0.2733
     86  O1A       24.1520   20.9590   65.0510 O.3   800  G20800      0.0000
     87  O1B       22.4070   19.6820   65.3050 O.3   800  G20800      0.0000
     88  C2        24.3140   18.7500   64.3580 C.3   800  G20800      0.1464
     89  C3        23.7920   17.5850   63.9320 C.3   800  G20800      0.0772
     90  C4        24.4490   16.7630   62.8270 C.3   800  G20800      0.2062
     91  C5        25.9390   16.9520   62.8590 C.3   800  G20800      0.1708
     92  N5        26.6290   16.3440   61.7340 N.am  800  G20800     -0.2005
     93  C10       27.2260   15.1590   61.8300 C.2   800  G20800      0.2420
     94  O10       27.2380   14.5030   62.8600 O.2   800  G20800     -0.2733
     95  C11       27.9170   14.5740   60.6420 C.3   800  G20800      0.0964
     96  C6        26.2470   18.4210   62.9400 C.3   800  G20800      0.2143
     97  O6        25.6430   18.8270   64.1650 O.3   800  G20800     -0.3452
     98  C7        27.8060   18.5450   62.9310 C.2   800  G20800      0.2548
     99  O7        28.4250   18.1990   63.9150 O.2   800  G20800     -0.2722
    100  N8        28.4230   19.0360   61.8150 N.am  800  G20800     -0.2758
    101  C81       28.0430   19.2080   60.4220 C.3   800  G20800      0.1149
    102  C9        29.7210   19.6680   62.0250 C.3   800  G20800      0.0935
    103  C91       30.7210   18.6700   62.6270 C.3   800  G20800      0.0215
    104  C92       30.5840   17.1610   62.3170 C.3   800  G20800      0.0018
    105  NE        24.1550   15.3450   63.0550 N.pl3 800  G20800     -0.0882
    106  CZ        23.9280   14.3990   62.1440 C.cat 800  G20800      0.5345
    107  NH1       23.9280   14.6880   60.8430 N.pl3 800  G20800      0.1354
    108  NH2       23.6810   13.1600   62.5410 N.pl3 800  G20800      0.1354
@<TRIPOS>BOND
     1     1    12    1
     2     1     2    1
     3     2     3    1
     4     2     9    1
     5     3     4    1
     6     3    10    1
     7     4     5    1
     8     4    11    1
     9     5     6    1
    10     5    12    1
    11     6    13    1
    12     7     9   am
    13     7     8    1
    14     7    14    2
    15    11    15    1
    16    15    16    1
    17    15    26    1
    18    16    23    1
    19    16    17    1
    20    17    24    1
    21    17    18    1
    22    18    25    1
    23    18    19    1
    24    19    26    1
    25    19    20    1
    26    20    27    1
    27    21    22    1
    28    21    28    2
    29    21    23   am
    30    25    29    1
    31    29    38    1
    32    29    30    1
    33    30    35    1
    34    30    31    1
    35    31    32    1
    36    31    36    1
    37    32    33    1
    38    32    37    1
    39    33    34    1
    40    33    38    1
    41    34    39    1
    42    36    40    1
    43    40    41    1
    44    40    49    1
    45    41    42    1
    46    41    46    1
    47    42    47    1
    48    42    43    1
    49    43    44    1
    50    43    48    1
    51    44    49    1
    52    44    45    1
    53    45    50    1
    54    46    51    1
    55    51    60    1
    56    51    52    1
    57    52    53    1
    58    52    57    1
    59    53    54    1
    60    53    58    1
    61    54    55    1
    62    54    59    1
    63    55    56    1
    64    55    60    1
    65    56    61    1
    66    57    62    1
    67    62    71    1
    68    62    63    1
    69    63    64    1
    70    63    68    1
    71    64    65    1
    72    64    69    1
    73    65    70    1
    74    65    66    1
    75    66    67    1
    76    66    71    1
    77    67    72    1
    78    73    74    1
    79    73    80    1
    80    74    75    1
    81    74    81    1
    82    75    82    1
    83    75    76    1
    84    76    77    1
    85    76    83    1
    86    77    84    1
    87    78    85    2
    88    78    80   am
    89    78    79    1
    90    88    89    1
    91    88    97    1
    92    89    90    1
    93    90    91    1
    94    90   105    1
    95    91    92    1
    96    91    96    1
    97    92    93   am
    98    93    95    1
    99    93    94    2
   100    96    98    1
   101    96    97    1
   102    98   100   am
   103    98    99    2
   104   100   101    1
   105   100   102    1
   106   102   103    1
   107   103   104    1
   108   105   106    2
   109   106   107    1
   110   106   108    1
