@<TRIPOS>MOLECULE
1i9c_5AD_1_ligand
   31    33     1     0     0
SMALL
NO_CHARGES


@<TRIPOS>ATOM
     1 N1           9.4490    -2.3710    88.0800 N.ar         1 5AD1303   0.0000
     2 C2           8.6670    -1.3540    87.6430 C.ar         1 5AD1303   0.0000
     3 N3           7.7330    -1.3970    86.7070 N.ar         1 5AD1303   0.0000
     4 C4           7.6460    -2.6220    86.1710 C.ar         1 5AD1303   0.0000
     5 N9           6.7490    -3.0870    85.2220 N.pl3        1 5AD1303   0.0000
     6 C8           7.0850    -4.3990    84.9720 C.2          1 5AD1303   0.0000
     7 N7           7.9930    -4.8600    85.7750 N.2          1 5AD1303   0.0000
     8 C5           8.3780    -3.7150    86.4980 C.ar         1 5AD1303   0.0000
     9 C6           9.3480    -3.5900    87.5410 C.ar         1 5AD1303   0.0000
    10 N6          10.0220    -4.5930    88.0850 N.pl3        1 5AD1303   0.0000
    11 C1'          5.7400    -2.2910    84.5600 C.3          1 5AD1303   0.0000
    12 C2'          6.1210    -1.8200    83.1470 C.3          1 5AD1303   0.0000
    13 C3'          5.2950    -2.6870    82.2510 C.3          1 5AD1303   0.0000
    14 C4'          4.0390    -3.0500    83.0790 C.3          1 5AD1303   0.0000
    15 C5'          3.4750    -4.4130    82.6630 C.3          1 5AD1303   0.0000
    16 O4'          4.5230    -3.0700    84.4400 O.3          1 5AD1303   0.0000
    17 O2'          5.8910    -0.4390    83.0970 O.3          1 5AD1303   0.0000
    18 O3'          5.0000    -2.2800    80.9680 O.3          1 5AD1303   0.0000
    19 H1           8.8132    -0.4663    88.0796 H            1 5AD1303   0.0000
    20 H2           6.6696    -4.9428    84.2428 H            1 5AD1303   0.0000
    21 H3           9.9563    -5.5105    87.6928 H            1 5AD1303   0.0000
    22 H4          10.5963    -4.4323    88.8877 H            1 5AD1303   0.0000
    23 H1'          5.5490    -1.4868    85.1229 H            1 5AD1303   0.0000
    24 H2'          7.0909    -2.0023    82.9853 H            1 5AD1303   0.0000
    25 H3'          5.8085    -3.5394    82.1522 H            1 5AD1303   0.0000
    26 H4'          3.3408    -2.3421    82.9728 H            1 5AD1303   0.0000
    27 H5'1         2.6662    -4.6210    83.2131 H            1 5AD1303   0.0000
    28 H5'2         3.2228    -4.3882    81.6956 H            1 5AD1303   0.0000
    29 H5'3         4.1680    -5.1191    82.8089 H            1 5AD1303   0.0000
    30 H12          6.1284    -0.0942    82.1888 H            1 5AD1303   0.0000
    31 H13          5.4138    -1.3855    80.7986 H            1 5AD1303   0.0000
@<TRIPOS>BOND
     1    1    2      ar
     2    1    9      ar
     3    2    3      ar
     4    3    4      ar
     5    4    5       1
     6    4    8      ar
     7    5    6       1
     8    5   11       1
     9    6    7       2
    10    7    8       1
    11    8    9      ar
    12    9   10       1
    13   11   12       1
    14   11   16       1
    15   12   13       1
    16   12   17       1
    17   13   14       1
    18   13   18       1
    19   14   15       1
    20   14   16       1
    21    2   19       1
    22    6   20       1
    23   10   21       1
    24   10   22       1
    25   11   23       1
    26   12   24       1
    27   13   25       1
    28   14   26       1
    29   15   27       1
    30   15   28       1
    31   15   29       1
    32   17   30       1
    33   18   31       1
@<TRIPOS>SUBSTRUCTURE
     1 5AD1303     1 GROUP             4 B     5AD     0 **** 5AD B1303
