@<TRIPOS>MOLECULE
1fm1_WAY_1_ligand
   50    52     1     0     0
SMALL
NO_CHARGES


@<TRIPOS>ATOM
     1 C1           2.0370    -4.2340     1.6050 C.ar         1 WAY169   0.0000
     2 C2           0.6370    -4.4600     1.1930 C.ar         1 WAY169   0.0000
     3 CF2         -0.4300    -4.2170     2.1580 C.ar         1 WAY169   0.0000
     4 CH          -0.1410    -3.7630     3.5020 C.ar         1 WAY169   0.0000
     5 CF1          1.2300    -3.5420     3.9050 C.ar         1 WAY169   0.0000
     6 C6           2.3260    -3.7710     2.9770 C.ar         1 WAY169   0.0000
     7 C10          0.1780    -4.9220    -0.1410 C.2          1 WAY169   0.0000
     8 O11          0.2890    -6.0960    -0.4880 O.2          1 WAY169   0.0000
     9 N12         -0.1520    -4.0260    -1.0840 N.am         1 WAY169   0.0000
    10 O13         -0.3400    -4.5150    -2.3840 O.3          1 WAY169  -1.0000
    11 CE           3.7290    -3.5180     3.4730 C.3          1 WAY169   0.0000
    12 N20          3.1030    -4.4430     0.7490 N.pl3        1 WAY169   0.0000
    13 S21          3.7710    -3.1440    -0.0600 S.o2         1 WAY169   0.0000
    14 CD           3.6610    -5.8020     0.6360 C.3          1 WAY169   0.0000
    15 CK           7.2770    -6.0280     2.0840 C.ar         1 WAY169   0.0000
    16 CM           6.9740    -6.6630     3.3320 C.ar         1 WAY169   0.0000
    17 N25          5.6680    -7.0020     3.6910 N.ar         1 WAY169   0.0000
    18 CJ           4.6200    -6.7180     2.8130 C.ar         1 WAY169   0.0000
    19 C27          4.8220    -6.0860     1.5450 C.ar         1 WAY169   0.0000
    20 CI           6.1810    -5.7410     1.1890 C.ar         1 WAY169   0.0000
    21 C35          4.1650    -3.6090    -1.7350 C.ar         1 WAY169   0.0000
    22 CC1          3.2200    -3.3320    -2.7980 C.ar         1 WAY169   0.0000
    23 CB1          3.5320    -3.7110    -4.1660 C.ar         1 WAY169   0.0000
    24 C38          4.7920    -4.3710    -4.4980 C.ar         1 WAY169   0.0000
    25 CB2          5.7460    -4.6440    -3.3900 C.ar         1 WAY169   0.0000
    26 CC2          5.4270    -4.2630    -2.0240 C.ar         1 WAY169   0.0000
    27 O45          5.0260    -4.7150    -5.8800 O.3          1 WAY169   0.0000
    28 CA           6.2270    -5.3690    -6.3300 C.3          1 WAY169   0.0000
    29 O50          5.0100    -2.8420     0.5850 O.2          1 WAY169   0.0000
    30 O51          2.7820    -2.1080    -0.1520 O.2          1 WAY169   0.0000
    31 HF2         -1.3804    -4.3671     1.8855 H            1 WAY169   0.0000
    32 HH          -0.8865    -3.6029     4.1490 H            1 WAY169   0.0000
    33 HF1          1.4270    -3.2277     4.8337 H            1 WAY169   0.0000
    34 H4          -0.2587    -3.0552    -0.8693 H            1 WAY169   0.0000
    35 HE1          3.6961    -3.2123     4.4246 H            1 WAY169   0.0000
    36 HE2          4.2613    -4.3624     3.4124 H            1 WAY169   0.0000
    37 HE3          4.1591    -2.8117     2.9107 H            1 WAY169   0.0000
    38 HD1          3.9650    -5.9356    -0.3073 H            1 WAY169   0.0000
    39 HD2          2.9338    -6.4550     0.8475 H            1 WAY169   0.0000
    40 HK           8.2175    -5.7911     1.8406 H            1 WAY169   0.0000
    41 HM           7.7202    -6.8696     3.9649 H            1 WAY169   0.0000
    42 HJ           3.6894    -6.9666     3.0815 H            1 WAY169   0.0000
    43 HI           6.3638    -5.2979     0.3114 H            1 WAY169   0.0000
    44 HC1          2.3526    -2.8798    -2.5902 H            1 WAY169   0.0000
    45 HB1          2.8727    -3.5166    -4.8924 H            1 WAY169   0.0000
    46 HB2          6.6166    -5.0947    -3.5870 H            1 WAY169   0.0000
    47 HC2          6.0752    -4.4511    -1.2862 H            1 WAY169   0.0000
    48 HA1          6.1787    -5.5112    -7.3187 H            1 WAY169   0.0000
    49 HA2          7.0187    -4.7977    -6.1137 H            1 WAY169   0.0000
    50 HA3          6.3178    -6.2524    -5.8703 H            1 WAY169   0.0000
@<TRIPOS>BOND
     1    1    2      ar
     2    1    6      ar
     3    1   12       1
     4    2    3      ar
     5    2    7       1
     6    3    4      ar
     7    4    5      ar
     8    5    6      ar
     9    6   11       1
    10    7    8       2
    11    7    9      am
    12    9   10       1
    13   12   13       1
    14   12   14       1
    15   13   21       1
    16   13   29       2
    17   13   30       2
    18   14   19       1
    19   15   16      ar
    20   15   20      ar
    21   16   17      ar
    22   17   18      ar
    23   18   19      ar
    24   19   20      ar
    25   21   22      ar
    26   21   26      ar
    27   22   23      ar
    28   23   24      ar
    29   24   25      ar
    30   24   27       1
    31   25   26      ar
    32   27   28       1
    33    3   31       1
    34    4   32       1
    35    5   33       1
    36    9   34       1
    37   28   50       1
    38   11   35       1
    39   11   36       1
    40   11   37       1
    41   14   38       1
    42   14   39       1
    43   15   40       1
    44   16   41       1
    45   18   42       1
    46   20   43       1
    47   22   44       1
    48   23   45       1
    49   25   46       1
    50   26   47       1
    51   28   48       1
    52   28   49       1
@<TRIPOS>SUBSTRUCTURE
     1 WAY169      1 GROUP             4 A     WAY     0 **** WAY A 169
