@<TRIPOS>MOLECULE
1fm8_DDC_1_ligand
   30    32     1     0     0
SMALL
NO_CHARGES


@<TRIPOS>ATOM
     1 C1          27.7830    18.8480    35.9010 C.ar         1 DDC501   0.0000
     2 C2          26.3730    18.8500    36.1970 C.ar         1 DDC501   0.0000
     3 C3          25.4970    19.8160    35.5840 C.ar         1 DDC501   0.0000
     4 C4          26.0420    20.7960    34.6680 C.ar         1 DDC501   0.0000
     5 C5          27.4550    20.8210    34.3420 C.ar         1 DDC501   0.0000
     6 C6          28.3100    19.8370    34.9750 C.ar         1 DDC501   0.0000
     7 C7          25.1270    21.8310    34.0060 C.2          1 DDC501   0.0000
     8 C8          25.8300    22.8120    33.0780 C.3          1 DDC501   0.0000
     9 C9          27.0520    22.1670    32.4050 C.3          1 DDC501   0.0000
    10 O1          27.9730    21.7510    33.4490 O.3          1 DDC501   0.0000
    11 O2          28.5950    17.9340    36.4810 O.3          1 DDC501   0.0000
    12 C10         27.7630    23.1460    31.4710 C.ar         1 DDC501   0.0000
    13 C11         27.3270    24.5250    31.2910 C.ar         1 DDC501   0.0000
    14 C12         28.0420    25.4060    30.3910 C.ar         1 DDC501   0.0000
    15 C13         29.1950    24.9320    29.6660 C.ar         1 DDC501   0.0000
    16 C14         29.6360    23.5700    29.8340 C.ar         1 DDC501   0.0000
    17 C15         28.9260    22.6870    30.7350 C.ar         1 DDC501   0.0000
    18 O3          23.9360    21.8820    34.2080 O.2          1 DDC501   0.0000
    19 H1          25.9991    18.1752    36.8333 H            1 DDC501   0.0000
    20 H2          24.5185    19.8096    35.7900 H            1 DDC501   0.0000
    21 H3          29.2886    19.8383    34.7693 H            1 DDC501   0.0000
    22 H4          26.1309    23.6041    33.6090 H            1 DDC501   0.0000
    23 H5          25.1879    23.1090    32.3712 H            1 DDC501   0.0000
    24 H6          26.7585    21.3657    31.8837 H            1 DDC501   0.0000
    25 H7          28.2164    17.2598    37.1152 H            1 DDC501   0.0000
    26 H8          26.5304    24.8644    31.7913 H            1 DDC501   0.0000
    27 H9          27.7340    26.3498    30.2714 H            1 DDC501   0.0000
    28 H10         29.6869    25.5461    29.0488 H            1 DDC501   0.0000
    29 H11         30.4315    23.2355    29.3287 H            1 DDC501   0.0000
    30 H12         29.2422    21.7456    30.8520 H            1 DDC501   0.0000
@<TRIPOS>BOND
     1    1    2      ar
     2    1    6      ar
     3    1   11       1
     4    2    3      ar
     5    3    4      ar
     6    4    5      ar
     7    4    7       1
     8    5    6      ar
     9    5   10       1
    10    7    8       1
    11    7   18       2
    12    8    9       1
    13    9   10       1
    14    9   12       1
    15   12   13      ar
    16   12   17      ar
    17   13   14      ar
    18   14   15      ar
    19   15   16      ar
    20   16   17      ar
    21    2   19       1
    22    3   20       1
    23    6   21       1
    24    8   22       1
    25    8   23       1
    26    9   24       1
    27   11   25       1
    28   13   26       1
    29   14   27       1
    30   15   28       1
    31   16   29       1
    32   17   30       1
@<TRIPOS>SUBSTRUCTURE
     1 DDC501      1 GROUP             4 A     DDC     0 **** DDC A 501
