@<TRIPOS>MOLECULE
2gcg_NDP_4_ligand
   73    77     1     0     0
SMALL
NO_CHARGES


@<TRIPOS>ATOM
     1 PA          -8.6390   -22.4540   -53.6710 P.3          1 NDP2004   0.0000
     2 O1A         -9.4780   -21.2850   -53.3390 O.co2        1 NDP2004   0.0000
     3 O2A         -8.4250   -23.2810   -52.4580 O.co2        1 NDP2004  -1.0000
     4 O5B         -9.3130   -23.2940   -54.8790 O.3          1 NDP2004   0.0000
     5 C5B        -10.1690   -22.7330   -55.8570 C.3          1 NDP2004   0.0000
     6 C4B        -11.6000   -23.2170   -55.6360 C.3          1 NDP2004   0.0000
     7 O4B        -12.2620   -23.6360   -56.8130 O.3          1 NDP2004   0.0000
     8 C3B        -11.6160   -24.4280   -54.7250 C.3          1 NDP2004   0.0000
     9 O3B        -11.9640   -23.9920   -53.4320 O.3          1 NDP2004   0.0000
    10 C2B        -12.6520   -25.3690   -55.3150 C.3          1 NDP2004   0.0000
    11 O2B        -13.5750   -25.7850   -54.3340 O.3          1 NDP2004   0.0000
    12 C1B        -13.2970   -24.5130   -56.3970 C.3          1 NDP2004   0.0000
    13 N9A        -13.9250   -25.3960   -57.4130 N.pl3        1 NDP2004   0.0000
    14 C8A        -13.3420   -26.4270   -58.1090 C.2          1 NDP2004   0.0000
    15 N7A        -14.2790   -27.0170   -58.9010 N.2          1 NDP2004   0.0000
    16 C5A        -15.4610   -26.3870   -58.7200 C.ar         1 NDP2004   0.0000
    17 C6A        -16.7290   -26.5820   -59.2800 C.ar         1 NDP2004   0.0000
    18 N6A        -17.0560   -27.8060   -59.6990 N.pl3        1 NDP2004   0.0000
    19 N1A        -17.7630   -25.7420   -58.8930 N.ar         1 NDP2004   0.0000
    20 C2A        -17.5460   -24.7460   -57.9600 C.ar         1 NDP2004   0.0000
    21 N3A        -16.2850   -24.5780   -57.4140 N.ar         1 NDP2004   0.0000
    22 C4A        -15.2550   -25.3750   -57.7810 C.ar         1 NDP2004   0.0000
    23 O3          -7.2620   -21.8760   -54.2970 O.3          1 NDP2004   0.0000
    24 PN          -7.1280   -20.3260   -54.8010 P.3          1 NDP2004   0.0000
    25 O1N         -8.2220   -19.5730   -54.1530 O.co2        1 NDP2004   0.0000
    26 O2N         -5.7250   -19.8780   -54.6140 O.co2        1 NDP2004  -1.0000
    27 O5D         -7.4350   -20.3890   -56.3900 O.3          1 NDP2004   0.0000
    28 C5D         -8.4280   -19.5460   -56.9670 C.3          1 NDP2004   0.0000
    29 C4D         -8.3820   -19.5770   -58.4970 C.3          1 NDP2004   0.0000
    30 O4D         -8.5610   -18.2980   -59.1000 O.3          1 NDP2004   0.0000
    31 C3D         -7.0480   -20.0990   -58.9970 C.3          1 NDP2004   0.0000
    32 O3D         -7.0040   -21.5120   -58.9630 O.3          1 NDP2004   0.0000
    33 C2D         -6.8980   -19.4170   -60.3610 C.3          1 NDP2004   0.0000
    34 O2D         -7.5430   -20.0980   -61.4080 O.3          1 NDP2004   0.0000
    35 C1D         -7.6540   -18.1110   -60.1820 C.3          1 NDP2004   0.0000
    36 N1N         -6.6880   -17.0330   -59.8930 N.ar         1 NDP2004   1.0000
    37 C2N         -6.7480   -15.8470   -60.5650 C.ar         1 NDP2004   0.0000
    38 C3N         -5.8740   -14.7970   -60.2360 C.ar         1 NDP2004   0.0000
    39 C7N         -5.9280   -13.4720   -60.9430 C.2          1 NDP2004   0.0000
    40 O7N         -4.7080   -12.7690   -61.0310 O.2          1 NDP2004   0.0000
    41 N7N         -7.1030   -12.9910   -61.3930 N.am         1 NDP2004   0.0000
    42 C4N         -4.8170   -14.9250   -59.1590 C.ar         1 NDP2004   0.0000
    43 C5N         -4.8490   -16.2660   -58.5090 C.ar         1 NDP2004   0.0000
    44 C6N         -5.7660   -17.2210   -58.9040 C.ar         1 NDP2004   0.0000
    45 P2B        -14.6730   -26.9420   -54.5540 P.3          1 NDP2004   0.0000
    46 O1X        -14.5880   -27.8930   -53.3780 O.co2        1 NDP2004   0.0000
    47 O2X        -14.4180   -27.7890   -55.7700 O.co2        1 NDP2004  -1.0000
    48 O3X        -16.0150   -26.2880   -54.6670 O.co2        1 NDP2004  -1.0000
    49 H5B1        -9.8613   -23.0127   -56.7664 H            1 NDP2004   0.0000
    50 H5B2       -10.1421   -21.7357   -55.7881 H            1 NDP2004   0.0000
    51 H4B        -12.1288   -22.4831   -55.2098 H            1 NDP2004   0.0000
    52 H3B        -10.7168   -24.8653   -54.7134 H            1 NDP2004   0.0000
    53 H5         -12.8679   -23.5650   -53.4562 H            1 NDP2004   0.0000
    54 H2B        -12.2031   -26.1629   -55.7251 H            1 NDP2004   0.0000
    55 H1B        -14.0177   -23.9650   -55.9723 H            1 NDP2004   0.0000
    56 H8A        -12.3823   -26.7005   -58.0442 H            1 NDP2004   0.0000
    57 H6A1       -17.9555   -27.9725   -60.1029 H            1 NDP2004   0.0000
    58 H6A2       -16.4015   -28.5567   -59.6091 H            1 NDP2004   0.0000
    59 H2A        -18.2975   -24.1485   -57.6801 H            1 NDP2004   0.0000
    60 H5D1        -8.2752   -18.6074   -56.6576 H            1 NDP2004   0.0000
    61 H5D2        -9.3298   -19.8541   -56.6641 H            1 NDP2004   0.0000
    62 H4D         -9.1043   -20.1863   -58.8242 H            1 NDP2004   0.0000
    63 H3D         -6.3309   -19.7502   -58.3936 H            1 NDP2004   0.0000
    64 H16         -6.4038   -21.8444   -59.6905 H            1 NDP2004   0.0000
    65 H2D         -5.9360   -19.2504   -60.5774 H            1 NDP2004   0.0000
    66 H18         -7.4049   -19.6003   -62.2643 H            1 NDP2004   0.0000
    67 H1D         -8.1617   -17.8963   -61.0164 H            1 NDP2004   0.0000
    68 H2N         -7.4185   -15.7242   -61.2966 H            1 NDP2004   0.0000
    69 H7N1        -7.1351   -12.1089   -61.8630 H            1 NDP2004   0.0000
    70 H7N2        -7.9432   -13.5160   -61.2571 H            1 NDP2004   0.0000
    71 H4N         -4.1755   -14.1981   -58.9137 H            1 NDP2004   0.0000
    72 H5N         -4.1993   -16.4769   -57.7786 H            1 NDP2004   0.0000
    73 H6N         -5.7535   -18.1048   -58.4364 H            1 NDP2004   0.0000
@<TRIPOS>BOND
     1    1    2      ar
     2    1    3      ar
     3    1    4       1
     4    1   23       1
     5    4    5       1
     6    5    6       1
     7    6    7       1
     8    6    8       1
     9    7   12       1
    10    8    9       1
    11    8   10       1
    12   10   11       1
    13   10   12       1
    14   11   45       1
    15   12   13       1
    16   13   14       1
    17   13   22       1
    18   14   15       2
    19   15   16       1
    20   16   17      ar
    21   16   22      ar
    22   17   18       1
    23   17   19      ar
    24   19   20      ar
    25   20   21      ar
    26   21   22      ar
    27   23   24       1
    28   24   25      ar
    29   24   26      ar
    30   24   27       1
    31   27   28       1
    32   28   29       1
    33   29   30       1
    34   29   31       1
    35   30   35       1
    36   31   32       1
    37   31   33       1
    38   33   34       1
    39   33   35       1
    40   35   36       1
    41   36   37      ar
    42   36   44      ar
    43   37   38      ar
    44   38   39       1
    45   38   42      ar
    46   39   40       2
    47   39   41      am
    48   42   43      ar
    49   43   44      ar
    50   45   46      ar
    51   45   47      ar
    52   45   48      ar
    53   43   72       1
    54    5   49       1
    55    5   50       1
    56    6   51       1
    57    8   52       1
    58    9   53       1
    59   10   54       1
    60   12   55       1
    61   14   56       1
    62   18   57       1
    63   18   58       1
    64   20   59       1
    65   44   73       1
    66   28   60       1
    67   28   61       1
    68   29   62       1
    69   31   63       1
    70   32   64       1
    71   33   65       1
    72   34   66       1
    73   35   67       1
    74   37   68       1
    75   41   69       1
    76   41   70       1
    77   42   71       1
@<TRIPOS>SUBSTRUCTURE
     1 NDP2004     1 GROUP             4 D     NDP     0 **** NDP D2004
