@<TRIPOS>MOLECULE
4m37_SAH_1_ligand
   46    48     1     0     0
SMALL
NO_CHARGES


@<TRIPOS>ATOM
     1 N           -5.7010    -0.3570    22.1420 N.4          1 SAH401   1.0000
     2 CA          -4.8960     0.0630    20.9610 C.3          1 SAH401   0.0000
     3 CB          -5.6020    -0.3240    19.6650 C.3          1 SAH401   0.0000
     4 CG          -4.7340    -1.3100    18.8880 C.3          1 SAH401   0.0000
     5 SD          -5.3220    -1.4400    17.2390 S.3          1 SAH401   0.0000
     6 C           -4.7640     1.5480    20.9620 C.2          1 SAH401   0.0000
     7 O           -5.7640     2.2530    21.0620 O.co2        1 SAH401   0.0000
     8 OXT         -3.6830     2.1070    20.8260 O.co2        1 SAH401  -1.0000
     9 C5'         -6.4550    -2.7880    17.4090 C.3          1 SAH401   0.0000
    10 C4'         -5.8000    -4.0150    18.0560 C.3          1 SAH401   0.0000
    11 O4'         -6.7940    -4.9760    18.4070 O.3          1 SAH401   0.0000
    12 C3'         -4.8360    -4.7420    17.1350 C.3          1 SAH401   0.0000
    13 O3'         -3.6290    -4.9600    17.8870 O.3          1 SAH401   0.0000
    14 C2'         -5.5310    -6.0520    16.7640 C.3          1 SAH401   0.0000
    15 O2'         -4.6080    -7.1430    16.6920 O.3          1 SAH401   0.0000
    16 C1'         -6.4810    -6.2940    17.9190 C.3          1 SAH401   0.0000
    17 N9          -7.8410    -6.8300    17.6930 N.pl3        1 SAH401   0.0000
    18 C8          -8.7300    -6.4450    16.7520 C.2          1 SAH401   0.0000
    19 N7          -9.9120    -7.0980    16.9130 N.2          1 SAH401   0.0000
    20 C5          -9.7910    -7.8880    17.9940 C.ar         1 SAH401   0.0000
    21 C6         -10.6690    -8.8270    18.7230 C.ar         1 SAH401   0.0000
    22 N6         -11.9320    -9.0390    18.2880 N.pl3        1 SAH401   0.0000
    23 N1         -10.1630    -9.4570    19.8160 N.ar         1 SAH401   0.0000
    24 C2          -8.9020    -9.2380    20.2430 C.ar         1 SAH401   0.0000
    25 N3          -8.0490    -8.3930    19.6290 N.ar         1 SAH401   0.0000
    26 C4          -8.4340    -7.6970    18.5200 C.ar         1 SAH401   0.0000
    27 H1          -5.0898    -0.5591    22.9072 H            1 SAH401   0.0000
    28 H2          -6.3249     0.3808    22.3996 H            1 SAH401   0.0000
    29 HA          -3.9908    -0.3605    20.9965 H            1 SAH401   0.0000
    30 HB1         -5.7543     0.4945    19.1111 H            1 SAH401   0.0000
    31 HB2         -6.4810    -0.7502    19.8787 H            1 SAH401   0.0000
    32 HG1         -4.7747    -2.2073    19.3275 H            1 SAH401   0.0000
    33 HG2         -3.7881    -0.9856    18.8794 H            1 SAH401   0.0000
    34 H5'1        -6.7914    -3.0426    16.5024 H            1 SAH401   0.0000
    35 H5'2        -7.2224    -2.4942    17.9789 H            1 SAH401   0.0000
    36 H4'         -5.3131    -3.7300    18.8817 H            1 SAH401   0.0000
    37 H3'         -4.6495    -4.1971    16.3175 H            1 SAH401   0.0000
    38 H12         -3.8346    -5.5131    18.6944 H            1 SAH401   0.0000
    39 H2'         -6.0341    -5.9558    15.9051 H            1 SAH401   0.0000
    40 H14         -4.1649    -7.2639    17.5803 H            1 SAH401   0.0000
    41 H1'         -6.0213    -6.8215    18.6334 H            1 SAH401   0.0000
    42 H16         -8.5446    -5.7724    16.0356 H            1 SAH401   0.0000
    43 H17        -12.5297    -9.6735    18.7781 H            1 SAH401   0.0000
    44 H18        -12.2681    -8.5613    17.4763 H            1 SAH401   0.0000
    45 H19         -8.5840    -9.7267    21.0554 H            1 SAH401   0.0000
    46 H20         -6.2287    -1.1747    21.9120 H            1 SAH401   0.0000
@<TRIPOS>BOND
     1    1    2       1
     2    2    3       1
     3    2    6       1
     4    3    4       1
     5    4    5       1
     6    5    9       1
     7    6    7      ar
     8    6    8      ar
     9    9   10       1
    10   10   11       1
    11   10   12       1
    12   11   16       1
    13   12   13       1
    14   12   14       1
    15   14   15       1
    16   14   16       1
    17   16   17       1
    18   17   18       1
    19   17   26       1
    20   18   19       2
    21   19   20       1
    22   20   21      ar
    23   20   26      ar
    24   21   22       1
    25   21   23      ar
    26   23   24      ar
    27   24   25      ar
    28   25   26      ar
    29    1   27       1
    30    1   28       1
    31    2   29       1
    32    3   30       1
    33    3   31       1
    34    4   32       1
    35    4   33       1
    36    1   46       1
    37    9   34       1
    38    9   35       1
    39   10   36       1
    40   12   37       1
    41   13   38       1
    42   14   39       1
    43   15   40       1
    44   16   41       1
    45   18   42       1
    46   22   43       1
    47   22   44       1
    48   24   45       1
@<TRIPOS>SUBSTRUCTURE
     1 SAH401      1 GROUP             4 A     SAH     0 **** SAH A 401
