@<TRIPOS>MOLECULE
./coach420/1a26/ligand.pdb
 27 29 0 0 0
SMALL
GASTEIGER

@<TRIPOS>ATOM
      1  PA        39.5540   14.6330   25.9370 P.3   200  CNA200      0.2231
      2  O1A       40.5110   15.3860   26.8280 O.2   200  CNA200     -0.5169
      3  O2A       38.5460   13.9710   26.8340 O.3   200  CNA200     -0.4370
      4  O5B       38.7910   15.6620   25.0300 O.3   200  CNA200     -0.3111
      5  C5B       37.6460   15.2200   24.1480 C.3   200  CNA200      0.1813
      6  C4B       37.4690   16.3910   23.2030 C.3   200  CNA200      0.1801
      7  O4B       36.4330   16.0540   22.2670 O.3   200  CNA200     -0.3306
      8  C3B       37.2150   17.7810   23.6930 C.3   200  CNA200      0.2161
      9  O3B       38.3720   18.6100   23.5580 O.3   200  CNA200     -0.2175
     10  C2B       36.0380   18.3550   22.8500 C.3   200  CNA200      0.2337
     11  O2B       36.3760   19.4010   21.9060 O.3   200  CNA200     -0.2155
     12  C1B       35.4850   17.1320   22.1360 C.3   200  CNA200      0.2409
     13  N9A       34.2740   16.5580   22.7510 N.ar  200  CNA200     -0.2693
     14  C8A       34.1770   15.4810   23.6080 C.ar  200  CNA200      0.1816
     15  N7A       32.9190   15.2520   23.9580 N.ar  200  CNA200     -0.2193
     16  C5A       32.1650   16.2100   23.3080 C.ar  200  CNA200      0.1518
     17  C6A       30.7560   16.4850   23.2750 C.ar  200  CNA200      0.1919
     18  N6A       29.8420   15.7840   23.9550 N.pl3 200  CNA200     -0.1054
     19  N1A       30.3580   17.5290   22.5120 N.ar  200  CNA200     -0.2040
     20  C2A       31.2680   18.2590   21.8100 C.ar  200  CNA200      0.2016
     21  N3A       32.6020   18.0940   21.7590 N.ar  200  CNA200     -0.2048
     22  C4A       32.9820   17.0330   22.5430 C.ar  200  CNA200      0.1692
     23  O3        40.2420   13.6650   24.9150 O.3   200  CNA200     -0.2261
     24  PN        41.1550   13.7390   23.6380 P.3   200  CNA200      0.5373
     25  O1N       41.2430   15.1710   23.2890 O.3   200  CNA200     -0.1143
     26  O2N       42.4110   13.0090   23.8410 O.3   200  CNA200     -0.1143
     27  O5D       40.2630   13.0920   22.4660 O.2   200  CNA200     -0.2221
@<TRIPOS>BOND
     1     1    23    1
     2     1     4    1
     3     1     2    2
     4     1     3    1
     5     4     5    1
     6     5     6    1
     7     6     7    1
     8     6     8    1
     9     7    12    1
    10     8    10    1
    11     8     9    1
    12    10    11    1
    13    10    12    1
    14    12    13    1
    15    13    22   ar
    16    13    14   ar
    17    14    15   ar
    18    15    16   ar
    19    16    22   ar
    20    16    17   ar
    21    17    19   ar
    22    17    18    1
    23    19    20   ar
    24    20    21   ar
    25    21    22   ar
    26    23    24    1
    27    24    27    2
    28    24    25    1
    29    24    26    1
