@<TRIPOS>MOLECULE
2mji_KTR_1_ligand
   31    33     1     0     0
SMALL
NO_CHARGES


@<TRIPOS>ATOM
     1 O3           1.2820     3.8590    -3.2450 O.co2        1 KTR201   0.0000
     2 C4          -1.0310     0.1660    -4.1390 C.2          1 KTR201   0.0000
     3 C5           0.0010     0.5080    -3.3750 C.2          1 KTR201   0.0000
     4 C6           1.9780    -0.2170    -2.4140 C.3          1 KTR201   0.0000
     5 N1           0.7790    -0.5840    -3.2090 N.pl3        1 KTR201   0.0000
     6 C7           1.6060     1.0060    -1.6670 C.3          1 KTR201   0.0000
     7 C8           0.6280     1.6670    -2.6070 C.3          1 KTR201   0.0000
     8 C9           1.3220     2.6490    -3.5540 C.2          1 KTR201   0.0000
     9 C10          1.5250    -3.4770    -5.1820 C.ar         1 KTR201   0.0000
    10 C11          2.3040    -2.5700    -5.8940 C.ar         1 KTR201   0.0000
    11 C12          3.0040    -2.9720    -7.0240 C.ar         1 KTR201   0.0000
    12 C13          2.9280    -4.2920    -7.4520 C.ar         1 KTR201   0.0000
    13 C14          2.1530    -5.2060    -6.7490 C.ar         1 KTR201   0.0000
    14 C15          1.4560    -4.7970    -5.6190 C.ar         1 KTR201   0.0000
    15 O1           0.5710    -3.8120    -3.0060 O.2          1 KTR201   0.0000
    16 C1           0.7550    -3.0300    -3.9390 C.2          1 KTR201   0.0000
    17 C2           0.2130    -1.6020    -3.8670 C.2          1 KTR201   0.0000
    18 C3          -0.8980    -1.1650    -4.4470 C.2          1 KTR201   0.0000
    19 O2           1.8750     2.1660    -4.5660 O.co2        1 KTR201  -1.0000
    20 H1          -1.7710     0.7694    -4.4360 H            1 KTR201   0.0000
    21 H2           2.7539    -0.0341    -3.0178 H            1 KTR201   0.0000
    22 H3           2.2150    -0.9536    -1.7806 H            1 KTR201   0.0000
    23 H4           2.4027     1.5881    -1.5042 H            1 KTR201   0.0000
    24 H5           1.1740     0.7804    -0.7938 H            1 KTR201   0.0000
    25 H6          -0.0761     2.1445    -2.0814 H            1 KTR201   0.0000
    26 H7           2.3603    -1.6193    -5.5889 H            1 KTR201   0.0000
    27 H8           3.5616    -2.3130    -7.5287 H            1 KTR201   0.0000
    28 H9           3.4309    -4.5838    -8.2656 H            1 KTR201   0.0000
    29 H10          2.0970    -6.1562    -7.0557 H            1 KTR201   0.0000
    30 H11          0.8994    -5.4571    -5.1146 H            1 KTR201   0.0000
    31 H12         -1.5246    -1.7072    -5.0069 H            1 KTR201   0.0000
@<TRIPOS>BOND
     1    1    8      ar
     2    2    3       2
     3    2   18       1
     4    3    5       1
     5    3    7       1
     6    4    5       1
     7    4    6       1
     8    5   17       1
     9    6    7       1
    10    7    8       1
    11    8   19      ar
    12    9   10      ar
    13    9   14      ar
    14    9   16       1
    15   10   11      ar
    16   11   12      ar
    17   12   13      ar
    18   13   14      ar
    19   15   16       2
    20   16   17       1
    21   17   18       2
    22   18   31       1
    23    2   20       1
    24    4   21       1
    25    4   22       1
    26    6   23       1
    27    6   24       1
    28    7   25       1
    29   10   26       1
    30   11   27       1
    31   12   28       1
    32   13   29       1
    33   14   30       1
@<TRIPOS>SUBSTRUCTURE
     1 KTR201      1 GROUP             4 A     KTR     0 **** KTR A 201
