@<TRIPOS>MOLECULE
2d4v_NAD_4_ligand
   70    74     1     0     0
SMALL
NO_CHARGES


@<TRIPOS>ATOM
     1 PA          17.3420   103.1590    50.6500 P.3          1 NAD2301   0.0000
     2 O1A         18.6080   103.2980    51.3980 O.co2        1 NAD2301   0.0000
     3 O2A         16.9540   101.6890    50.5040 O.co2        1 NAD2301  -1.0000
     4 O5B         16.1400   103.9300    51.3840 O.3          1 NAD2301   0.0000
     5 C5B         14.9140   104.1230    50.6990 C.3          1 NAD2301   0.0000
     6 C4B         13.8170   104.3990    51.7180 C.3          1 NAD2301   0.0000
     7 O4B         13.5050   103.1760    52.3900 O.3          1 NAD2301   0.0000
     8 C3B         14.3060   105.4000    52.7630 C.3          1 NAD2301   0.0000
     9 O3B         13.2550   106.2870    53.1050 O.3          1 NAD2301   0.0000
    10 C2B         14.6520   104.4810    53.9300 C.3          1 NAD2301   0.0000
    11 O2B         14.5190   105.1140    55.1890 O.3          1 NAD2301   0.0000
    12 C1B         13.7130   103.3080    53.7790 C.3          1 NAD2301   0.0000
    13 N9A         14.4130   102.1280    54.2910 N.pl3        1 NAD2301   0.0000
    14 C8A         15.3560   101.3800    53.6320 C.2          1 NAD2301   0.0000
    15 N7A         15.7620   100.4010    54.4730 N.2          1 NAD2301   0.0000
    16 C5A         15.0820   100.5160    55.6380 C.ar         1 NAD2301   0.0000
    17 C6A         15.1100    99.7960    56.8360 C.ar         1 NAD2301   0.0000
    18 N6A         15.8770    98.7090    57.0210 N.pl3        1 NAD2301   0.0000
    19 N1A         14.2930   100.1940    57.8620 N.ar         1 NAD2301   0.0000
    20 C2A         13.4600   101.2770    57.7280 C.ar         1 NAD2301   0.0000
    21 N3A         13.4430   102.0060    56.5630 N.ar         1 NAD2301   0.0000
    22 C4A         14.2400   101.6110    55.5290 C.ar         1 NAD2301   0.0000
    23 O3          17.3910   103.7300    49.1400 O.3          1 NAD2301   0.0000
    24 PN          17.9840   105.0720    48.5120 P.3          1 NAD2301   0.0000
    25 O1N         17.3200   105.1120    47.1840 O.co2        1 NAD2301   0.0000
    26 O2N         17.7360   106.1940    49.4400 O.co2        1 NAD2301  -1.0000
    27 O5D         19.5470   104.7780    48.3080 O.3          1 NAD2301   0.0000
    28 C5D         20.4650   105.1280    49.3410 C.3          1 NAD2301   0.0000
    29 C4D         21.8220   104.4890    49.0800 C.3          1 NAD2301   0.0000
    30 O4D         21.7420   103.0840    49.2970 O.3          1 NAD2301   0.0000
    31 C3D         22.2680   104.6660    47.6440 C.3          1 NAD2301   0.0000
    32 O3D         23.6070   105.0850    47.6410 O.3          1 NAD2301   0.0000
    33 C2D         22.1550   103.2870    47.0360 C.3          1 NAD2301   0.0000
    34 O2D         23.1630   103.0220    46.1040 O.3          1 NAD2301   0.0000
    35 C1D         22.3950   102.4130    48.2410 C.3          1 NAD2301   0.0000
    36 N1N         21.7950   101.0840    48.1340 N.ar         1 NAD2301   1.0000
    37 C2N         22.5640   100.0060    48.4980 C.ar         1 NAD2301   0.0000
    38 C3N         22.0450    98.7330    48.4520 C.ar         1 NAD2301   0.0000
    39 C7N         22.9180    97.5660    48.7870 C.2          1 NAD2301   0.0000
    40 O7N         24.0120    97.8000    49.6120 O.2          1 NAD2301   0.0000
    41 N7N         22.6890    96.3510    48.2830 N.am         1 NAD2301   0.0000
    42 C4N         20.7270    98.5530    48.0370 C.ar         1 NAD2301   0.0000
    43 C5N         19.9590    99.6710    47.6850 C.ar         1 NAD2301   0.0000
    44 C6N         20.5020   100.9460    47.7290 C.ar         1 NAD2301   0.0000
    45 H5B1        14.6880   103.3004    50.1772 H            1 NAD2301   0.0000
    46 H5B2        14.9966   104.9008    50.0759 H            1 NAD2301   0.0000
    47 H4B         13.0034   104.7542    51.2577 H            1 NAD2301   0.0000
    48 H3B         15.1114   105.8976    52.4409 H            1 NAD2301   0.0000
    49 H5          13.5795   106.9403    53.7891 H            1 NAD2301   0.0000
    50 H2B         15.5933   104.1605    53.8243 H            1 NAD2301   0.0000
    51 H7          15.1314   105.9034    55.2315 H            1 NAD2301   0.0000
    52 H1B         12.8528   103.4628    54.2649 H            1 NAD2301   0.0000
    53 H8A         15.6837   101.5311    52.6994 H            1 NAD2301   0.0000
    54 H6A1        15.8607    98.2289    57.8981 H            1 NAD2301   0.0000
    55 H6A2        16.4643    98.3798    56.2816 H            1 NAD2301   0.0000
    56 H2A         12.8604   101.5377    58.4846 H            1 NAD2301   0.0000
    57 H5D1        20.1120   104.8057    50.2193 H            1 NAD2301   0.0000
    58 H5D2        20.5682   106.1223    49.3678 H            1 NAD2301   0.0000
    59 H4D         22.5038   104.8855    49.6948 H            1 NAD2301   0.0000
    60 H3D         21.6844   105.3206    47.1635 H            1 NAD2301   0.0000
    61 H17         23.7767   105.6532    46.8358 H            1 NAD2301   0.0000
    62 H2D         21.2470   103.1321    46.6468 H            1 NAD2301   0.0000
    63 H19         23.0414   102.1008    45.7344 H            1 NAD2301   0.0000
    64 H1D         23.3745   102.3390    48.4281 H            1 NAD2301   0.0000
    65 H2N         23.5073   100.1474    48.7984 H            1 NAD2301   0.0000
    66 H7N1        23.2892    95.5884    48.5242 H            1 NAD2301   0.0000
    67 H7N2        21.9173    96.2036    47.6643 H            1 NAD2301   0.0000
    68 H4N         20.3331    97.6350    47.9908 H            1 NAD2301   0.0000
    69 H5N         19.0087    99.5479    47.3989 H            1 NAD2301   0.0000
    70 H6N         19.9580   101.7441    47.4699 H            1 NAD2301   0.0000
@<TRIPOS>BOND
     1    1    2      ar
     2    1    3      ar
     3    1    4       1
     4    1   23       1
     5    4    5       1
     6    5    6       1
     7    6    7       1
     8    6    8       1
     9    7   12       1
    10    8    9       1
    11    8   10       1
    12   10   11       1
    13   10   12       1
    14   12   13       1
    15   13   14       1
    16   13   22       1
    17   14   15       2
    18   15   16       1
    19   16   17      ar
    20   16   22      ar
    21   17   18       1
    22   17   19      ar
    23   19   20      ar
    24   20   21      ar
    25   21   22      ar
    26   23   24       1
    27   24   25      ar
    28   24   26      ar
    29   24   27       1
    30   27   28       1
    31   28   29       1
    32   29   30       1
    33   29   31       1
    34   30   35       1
    35   31   32       1
    36   31   33       1
    37   33   34       1
    38   33   35       1
    39   35   36       1
    40   36   37      ar
    41   36   44      ar
    42   37   38      ar
    43   38   39       1
    44   38   42      ar
    45   39   40       2
    46   39   41      am
    47   42   43      ar
    48   43   44      ar
    49   44   70       1
    50    5   45       1
    51    5   46       1
    52    6   47       1
    53    8   48       1
    54    9   49       1
    55   10   50       1
    56   11   51       1
    57   12   52       1
    58   14   53       1
    59   18   54       1
    60   18   55       1
    61   20   56       1
    62   43   69       1
    63   28   57       1
    64   28   58       1
    65   29   59       1
    66   31   60       1
    67   32   61       1
    68   33   62       1
    69   34   63       1
    70   35   64       1
    71   37   65       1
    72   41   66       1
    73   41   67       1
    74   42   68       1
@<TRIPOS>SUBSTRUCTURE
     1 NAD2301     1 GROUP             4 D     NAD     0 **** NAD D2301
