@<TRIPOS>MOLECULE
1c3r_TSN_1_ligand
   43    43     1     0     0
SMALL
NO_CHARGES


@<TRIPOS>ATOM
     1 O1          47.6690     8.1890   109.4640 O.3          1 TSN502  -1.0000
     2 O2          49.9520     6.9810   108.3400 O.2          1 TSN502   0.0000
     3 O3          52.4580     5.1010   101.6670 O.2          1 TSN502   0.0000
     4 N1          47.8000     7.7890   108.1310 N.am         1 TSN502   0.0000
     5 N2          53.0130    -1.3290   101.2590 N.pl3        1 TSN502   0.0000
     6 C1          51.8590     2.7990   101.6100 C.ar         1 TSN502   0.0000
     7 C2          50.9070     1.7690   101.6660 C.ar         1 TSN502   0.0000
     8 C3          51.2410     0.4190   101.5510 C.ar         1 TSN502   0.0000
     9 C4          52.6260     0.0260   101.3660 C.ar         1 TSN502   0.0000
    10 C5          53.5890     1.0800   101.3030 C.ar         1 TSN502   0.0000
    11 C6          53.2180     2.4080   101.4180 C.ar         1 TSN502   0.0000
    12 C7          51.5720     4.2610   101.7340 C.2          1 TSN502   0.0000
    13 C8          50.1080     4.7260   101.9960 C.3          1 TSN502   0.0000
    14 C9          50.0520     5.4210   103.3380 C.2          1 TSN502   0.0000
    15 C10         49.0600     5.3570   104.2790 C.2          1 TSN502   0.0000
    16 C11         49.3150     6.1550   105.5040 C.2          1 TSN502   0.0000
    17 C12         48.5150     6.1840   106.5950 C.2          1 TSN502   0.0000
    18 C13         48.8550     6.9940   107.7560 C.2          1 TSN502   0.0000
    19 C14         49.6800     5.6930   100.8640 C.3          1 TSN502   0.0000
    20 C15         47.7760     4.5450   104.1320 C.3          1 TSN502   0.0000
    21 C17         54.4380    -1.7030   101.1390 C.3          1 TSN502   0.0000
    22 C16         52.0440    -2.4160   101.3160 C.3          1 TSN502   0.0000
    23 H1          47.1267     8.0812   107.4518 H            1 TSN502   0.0000
    24 H2          49.9459     2.0137   101.7941 H            1 TSN502   0.0000
    25 H3          50.5256    -0.2782   101.5961 H            1 TSN502   0.0000
    26 H4          54.5540     0.8523   101.1727 H            1 TSN502   0.0000
    27 H5          53.9233     3.1150   101.3650 H            1 TSN502   0.0000
    28 H6          49.5009     3.9314   102.0049 H            1 TSN502   0.0000
    29 H7          50.8361     5.9983   103.5659 H            1 TSN502   0.0000
    30 H8          50.1430     6.7153   105.5248 H            1 TSN502   0.0000
    31 H9          47.6761     5.6399   106.6039 H            1 TSN502   0.0000
    32 H10         48.7409     5.9975   101.0230 H            1 TSN502   0.0000
    33 H11         50.2901     6.4853   100.8539 H            1 TSN502   0.0000
    34 H12         49.7327     5.2205    99.9843 H            1 TSN502   0.0000
    35 H13         47.2130     4.6605   104.9503 H            1 TSN502   0.0000
    36 H14         47.2695     4.8644   103.3311 H            1 TSN502   0.0000
    37 H15         48.0043     3.5781   104.0182 H            1 TSN502   0.0000
    38 H16         54.5173    -2.6978   101.0745 H            1 TSN502   0.0000
    39 H17         54.8246    -1.2839   100.3175 H            1 TSN502   0.0000
    40 H18         54.9362    -1.3804   101.9438 H            1 TSN502   0.0000
    41 H19         52.5188    -3.2911   101.2218 H            1 TSN502   0.0000
    42 H20         51.5646    -2.3896   102.1932 H            1 TSN502   0.0000
    43 H21         51.3837    -2.3133   100.5721 H            1 TSN502   0.0000
@<TRIPOS>BOND
     1    1    4       1
     2    2   18       2
     3    3   12       2
     4    4   18      am
     5    5    9       1
     6    5   21       1
     7    5   22       1
     8    6    7      ar
     9    6   11      ar
    10    6   12       1
    11    7    8      ar
    12    8    9      ar
    13    9   10      ar
    14   10   11      ar
    15   12   13       1
    16   13   14       1
    17   13   19       1
    18   14   15       2
    19   15   16       1
    20   15   20       1
    21   16   17       2
    22   17   18       1
    23   22   43       1
    24    4   23       1
    25    7   24       1
    26    8   25       1
    27   10   26       1
    28   11   27       1
    29   13   28       1
    30   14   29       1
    31   16   30       1
    32   17   31       1
    33   19   32       1
    34   19   33       1
    35   19   34       1
    36   20   35       1
    37   20   36       1
    38   20   37       1
    39   21   38       1
    40   21   39       1
    41   21   40       1
    42   22   41       1
    43   22   42       1
@<TRIPOS>SUBSTRUCTURE
     1 TSN502      1 GROUP             4 A     TSN     0 **** TSN A 502
