@<TRIPOS>MOLECULE
5f59_SAH_1_ligand
   46    48     1     0     0
SMALL
NO_CHARGES


@<TRIPOS>ATOM
     1 N          -21.4650    21.2660     8.3170 N.4          1 SAH5002   1.0000
     2 CA         -20.0930    21.0090     8.7560 C.3          1 SAH5002   0.0000
     3 CB         -19.1310    22.1430     8.3970 C.3          1 SAH5002   0.0000
     4 CG         -18.3990    21.9470     7.0630 C.3          1 SAH5002   0.0000
     5 SD         -17.2280    20.5570     7.1150 S.3          1 SAH5002   0.0000
     6 C          -20.0810    20.7280    10.2530 C.2          1 SAH5002   0.0000
     7 O          -19.0360    20.4090    10.8240 O.co2        1 SAH5002   0.0000
     8 OXT        -21.1240    20.8010    10.9110 O.co2        1 SAH5002  -1.0000
     9 C5'        -17.7950    19.8410     5.5490 C.3          1 SAH5002   0.0000
    10 C4'        -18.6860    18.6430     5.8530 C.3          1 SAH5002   0.0000
    11 O4'        -20.0090    19.1000     6.0980 O.3          1 SAH5002   0.0000
    12 C3'        -18.7600    17.6080     4.7380 C.3          1 SAH5002   0.0000
    13 O3'        -17.8590    16.5510     4.9500 O.3          1 SAH5002   0.0000
    14 C2'        -20.1850    17.1100     4.8470 C.3          1 SAH5002   0.0000
    15 O2'        -20.2760    16.0700     5.7920 O.3          1 SAH5002   0.0000
    16 C1'        -20.9480    18.2800     5.4270 C.3          1 SAH5002   0.0000
    17 N9         -21.5930    19.0560     4.3510 N.pl3        1 SAH5002   0.0000
    18 C8         -21.1700    20.2730     3.8760 C.2          1 SAH5002   0.0000
    19 N7         -22.0020    20.6740     2.8940 N.2          1 SAH5002   0.0000
    20 C5         -22.9480    19.7180     2.7220 C.ar         1 SAH5002   0.0000
    21 C6         -24.0320    19.6310     1.8570 C.ar         1 SAH5002   0.0000
    22 N6         -24.2800    20.6020     0.9830 N.pl3        1 SAH5002   0.0000
    23 N1         -24.8420    18.5250     1.9090 N.ar         1 SAH5002   0.0000
    24 C2         -24.5900    17.5210     2.8230 C.ar         1 SAH5002   0.0000
    25 N3         -23.5130    17.6080     3.6740 N.ar         1 SAH5002   0.0000
    26 C4         -22.7050    18.6960     3.6310 C.ar         1 SAH5002   0.0000
    27 H1         -22.0478    20.4960     8.5766 H            1 SAH5002   0.0000
    28 H2         -21.8030    22.1011     8.7511 H            1 SAH5002   0.0000
    29 HA         -19.7754    20.1832     8.2901 H            1 SAH5002   0.0000
    30 HB1        -18.4468    22.2155     9.1226 H            1 SAH5002   0.0000
    31 HB2        -19.6540    22.9938     8.3458 H            1 SAH5002   0.0000
    32 HG1        -17.8956    22.7835     6.8467 H            1 SAH5002   0.0000
    33 HG2        -19.0755    21.7708     6.3480 H            1 SAH5002   0.0000
    34 H5'1       -17.0067    19.5456     5.0093 H            1 SAH5002   0.0000
    35 H5'2       -18.3137    20.5242     5.0350 H            1 SAH5002   0.0000
    36 H4'        -18.3459    18.1955     6.6801 H            1 SAH5002   0.0000
    37 H3'        -18.6015    18.0350     3.8477 H            1 SAH5002   0.0000
    38 H12        -18.2276    15.7130     4.5477 H            1 SAH5002   0.0000
    39 H2'        -20.5498    16.8347     3.9575 H            1 SAH5002   0.0000
    40 H14        -21.2231    15.7544     5.8501 H            1 SAH5002   0.0000
    41 H1'        -21.6378    17.9519     6.0724 H            1 SAH5002   0.0000
    42 H16        -20.3734    20.7799     4.2053 H            1 SAH5002   0.0000
    43 H17        -25.0626    20.5302     0.3646 H            1 SAH5002   0.0000
    44 H18        -23.6839    21.4040     0.9441 H            1 SAH5002   0.0000
    45 H19        -25.1945    16.7256     2.8664 H            1 SAH5002   0.0000
    46 H20        -21.4818    21.3766     7.3233 H            1 SAH5002   0.0000
@<TRIPOS>BOND
     1    1    2       1
     2    2    3       1
     3    2    6       1
     4    3    4       1
     5    4    5       1
     6    5    9       1
     7    6    7      ar
     8    6    8      ar
     9    9   10       1
    10   10   11       1
    11   10   12       1
    12   11   16       1
    13   12   13       1
    14   12   14       1
    15   14   15       1
    16   14   16       1
    17   16   17       1
    18   17   18       1
    19   17   26       1
    20   18   19       2
    21   19   20       1
    22   20   21      ar
    23   20   26      ar
    24   21   22       1
    25   21   23      ar
    26   23   24      ar
    27   24   25      ar
    28   25   26      ar
    29    1   27       1
    30    1   28       1
    31    2   29       1
    32    3   30       1
    33    3   31       1
    34    4   32       1
    35    4   33       1
    36    1   46       1
    37    9   34       1
    38    9   35       1
    39   10   36       1
    40   12   37       1
    41   13   38       1
    42   14   39       1
    43   15   40       1
    44   16   41       1
    45   18   42       1
    46   22   43       1
    47   22   44       1
    48   24   45       1
@<TRIPOS>SUBSTRUCTURE
     1 SAH5002     1 GROUP             4 A     SAH     0 **** SAH A5002
