@<TRIPOS>MOLECULE
3pbl_ETQ_2_ligand
   49    50     1     0     0
SMALL
USER_CHARGES


@<TRIPOS>ATOM
     1 C1           2.3740    12.2190    -9.5780 C.ar         1 ETQ1200   0.0000
     2 N1           5.9670    12.7760    -9.9810 N.am         1 ETQ1200   0.0000
     3 O1           2.0150    12.3230   -10.8880 O.3          1 ETQ1200   0.0000
     4 CL1          3.5360    11.8010    -5.2450 Cl           1 ETQ1200   0.0000
     5 C2           1.4400    11.7310    -8.6570 C.ar         1 ETQ1200   0.0000
     6 N2           7.9450    15.3190   -10.2150 N.4          1 ETQ1200   1.0000
     7 O2           5.2720    12.7820    -7.3940 O.3          1 ETQ1200   0.0000
     8 C3           1.8120    11.6130    -7.3180 C.ar         1 ETQ1200   0.0000
     9 O3           4.3030    13.5670   -11.2900 O.2          1 ETQ1200   0.0000
    10 C4           3.0960    11.9650    -6.9070 C.ar         1 ETQ1200   0.0000
    11 C5           4.0280    12.4440    -7.8280 C.ar         1 ETQ1200   0.0000
    12 C6           5.2230    14.1040    -6.8430 C.3          1 ETQ1200   0.0000
    13 C7           3.6680    12.5830    -9.1770 C.ar         1 ETQ1200   0.0000
    14 C8           4.6860    13.0440   -10.2460 C.2          1 ETQ1200   0.0000
    15 C9           7.0770    13.1110   -10.8930 C.3          1 ETQ1200   0.0000
    16 C10          7.1080    14.6120   -11.2020 C.3          1 ETQ1200   0.0000
    17 C11          7.7810    14.8410   -12.5510 C.3          1 ETQ1200   0.0000
    18 C12          9.2540    14.8250   -12.1780 C.3          1 ETQ1200   0.0000
    19 C13          9.2730    15.5410   -10.8270 C.3          1 ETQ1200   0.0000
    20 C14          7.3480    16.6330    -9.9200 C.3          1 ETQ1200   0.0000
    21 C15          6.1110    16.4700    -9.0330 C.3          1 ETQ1200   0.0000
    22 C16          0.0080    11.3260    -9.0210 C.3          1 ETQ1200   0.0000
    23 C17         -0.8930    12.5480    -9.2080 C.3          1 ETQ1200   0.0000
    24 H1           6.1859    12.3232    -9.1167 H            1 ETQ1200   0.0000
    25 H2           2.6696    12.6696   -11.5598 H            1 ETQ1200   0.0000
    26 H3           1.1522    11.2732    -6.6478 H            1 ETQ1200   0.0000
    27 H4           6.1328    14.3644    -6.5200 H            1 ETQ1200   0.0000
    28 H5           4.9223    14.7476    -7.5469 H            1 ETQ1200   0.0000
    29 H6           4.5796    14.1225    -6.0777 H            1 ETQ1200   0.0000
    30 H7           6.9611    12.6046   -11.7475 H            1 ETQ1200   0.0000
    31 H8           7.9416    12.8484   -10.4645 H            1 ETQ1200   0.0000
    32 H9           6.1809    14.9869   -11.2061 H            1 ETQ1200   0.0000
    33 H10          7.5156    15.7213   -12.9444 H            1 ETQ1200   0.0000
    34 H11          7.5616    14.1083   -13.1952 H            1 ETQ1200   0.0000
    35 H12          9.8016    15.3181   -12.8541 H            1 ETQ1200   0.0000
    36 H13          9.5934    13.8882   -12.0933 H            1 ETQ1200   0.0000
    37 H14          9.9902    15.1594   -10.2439 H            1 ETQ1200   0.0000
    38 H15          9.4343    16.5193   -10.9568 H            1 ETQ1200   0.0000
    39 H16          7.0829    17.0744   -10.7772 H            1 ETQ1200   0.0000
    40 H17          8.0205    17.2016    -9.4463 H            1 ETQ1200   0.0000
    41 H18          5.7173    17.3691    -8.8416 H            1 ETQ1200   0.0000
    42 H19          5.4350    15.9036    -9.5045 H            1 ETQ1200   0.0000
    43 H20          6.3726    16.0308    -8.1735 H            1 ETQ1200   0.0000
    44 H21         -0.3647    10.7573    -8.2877 H            1 ETQ1200   0.0000
    45 H22          0.0255    10.8024    -9.8728 H            1 ETQ1200   0.0000
    46 H23         -1.8172    12.2477    -9.4440 H            1 ETQ1200   0.0000
    47 H24         -0.9205    13.0750    -8.3586 H            1 ETQ1200   0.0000
    48 H25         -0.5303    13.1201    -9.9436 H            1 ETQ1200   0.0000
    49 H26          8.0314    14.7782    -9.3783 H            1 ETQ1200   0.0000
@<TRIPOS>BOND
     1    1    3       1
     2    1    5      ar
     3    1   13      ar
     4    2   14      am
     5    2   15       1
     6    4   10       1
     7    5    8      ar
     8    5   22       1
     9    6   16       1
    10    6   19       1
    11    6   20       1
    12    7   11       1
    13    7   12       1
    14    8   10      ar
    15    9   14       2
    16   10   11      ar
    17   11   13      ar
    18   13   14       1
    19   15   16       1
    20   16   17       1
    21   17   18       1
    22   18   19       1
    23   20   21       1
    24   22   23       1
    25    2   24       1
    26    3   25       1
    27    8   26       1
    28   12   27       1
    29   12   28       1
    30   12   29       1
    31   15   30       1
    32   15   31       1
    33   16   32       1
    34   17   33       1
    35   17   34       1
    36   18   35       1
    37   18   36       1
    38   19   37       1
    39   19   38       1
    40   20   39       1
    41   20   40       1
    42   21   41       1
    43   21   42       1
    44   21   43       1
    45   22   44       1
    46   22   45       1
    47   23   46       1
    48   23   47       1
    49   23   48       1
    50    6   49       1
@<TRIPOS>SUBSTRUCTURE
     1 ETQ1200     1 GROUP             4 B     ETQ     0 **** ETQ B1200
