@<TRIPOS>MOLECULE
3v2b_AR6_1_ligand
   57    60     1     0     0
SMALL
NO_CHARGES


@<TRIPOS>ATOM
     1 N1          15.0790    17.2910    -0.1340 N.ar         1 AR6800   0.0000
     2 C2          14.1510    16.8160    -0.9250 C.ar         1 AR6800   0.0000
     3 N3          13.0160    17.4730    -1.1560 N.ar         1 AR6800   0.0000
     4 C4          12.7990    18.6470    -0.5650 C.ar         1 AR6800   0.0000
     5 C5          13.7510    19.1950     0.2930 C.ar         1 AR6800   0.0000
     6 C6          14.9120    18.4810     0.4960 C.ar         1 AR6800   0.0000
     7 N6          15.8710    18.9110     1.2680 N.pl3        1 AR6800   0.0000
     8 N7          13.2760    20.3540     0.7280 N.2          1 AR6800   0.0000
     9 C8          12.0590    20.5230     0.2220 C.2          1 AR6800   0.0000
    10 N9          11.7770    19.4690    -0.5790 N.pl3        1 AR6800   0.0000
    11 PA          10.0160    23.6200    -3.8640 P.3          1 AR6800   0.0000
    12 PB           8.8710    23.5440    -6.5080 P.3          1 AR6800   0.0000
    13 C1'         10.5370    19.2690    -1.3570 C.3          1 AR6800   0.0000
    14 O1A         11.4360    23.6380    -3.5320 O.co2        1 AR6800   0.0000
    15 O1B          9.3810    22.6910    -7.6530 O.co2        1 AR6800   0.0000
    16 C1D          7.9750    27.0530    -9.9430 C.3          1 AR6800   0.0000
    17 O1D          8.3030    27.8920   -11.0470 O.3          1 AR6800   0.0000
    18 C2'          9.4170    20.1680    -0.9380 C.3          1 AR6800   0.0000
    19 O2'          8.8580    19.7260     0.3080 O.3          1 AR6800   0.0000
    20 O2A          9.0410    24.6370    -3.3690 O.co2        1 AR6800  -1.0000
    21 O2B          7.5580    23.3500    -5.9240 O.co2        1 AR6800  -1.0000
    22 C2D          7.6400    27.9940    -8.8020 C.3          1 AR6800   0.0000
    23 O2D          7.8900    29.3060    -9.2550 O.3          1 AR6800   0.0000
    24 C3'          8.4650    19.9240    -2.0970 C.3          1 AR6800   0.0000
    25 O3'          7.7550    18.7020    -1.8950 O.3          1 AR6800   0.0000
    26 O3A         10.0780    23.4960    -5.4770 O.3          1 AR6800   0.0000
    27 C3D          8.6460    27.6390    -7.7160 C.3          1 AR6800   0.0000
    28 O3D          9.1960    28.8300    -7.1860 O.3          1 AR6800   0.0000
    29 C4'          9.4340    19.7750    -3.2590 C.3          1 AR6800   0.0000
    30 O4'         10.7570    19.7550    -2.6660 O.3          1 AR6800   0.0000
    31 C4D          9.7420    26.8530    -8.4180 C.3          1 AR6800   0.0000
    32 O4D          9.1430    26.3160    -9.5680 O.3          1 AR6800   0.0000
    33 C5'          9.4520    20.9990    -4.2020 C.3          1 AR6800   0.0000
    34 O5'          9.3760    22.1930    -3.4290 O.3          1 AR6800   0.0000
    35 C5D         10.1230    25.6190    -7.5330 C.3          1 AR6800   0.0000
    36 O5D          8.9420    25.0400    -7.0320 O.3          1 AR6800   0.0000
    37 H1          14.2987    15.9325    -1.3696 H            1 AR6800   0.0000
    38 H2          15.7752    19.7847     1.7449 H            1 AR6800   0.0000
    39 H3          16.7022    18.3670     1.3831 H            1 AR6800   0.0000
    40 H4          11.4536    21.2982     0.4025 H            1 AR6800   0.0000
    41 H1'         10.2565    18.3092    -1.3627 H            1 AR6800   0.0000
    42 H1D          7.2095    26.4461   -10.1565 H            1 AR6800   0.0000
    43 H7           7.4756    28.0903   -11.5724 H            1 AR6800   0.0000
    44 H2'          9.7076    21.1238    -0.8939 H            1 AR6800   0.0000
    45 H9           9.3445    18.9103     0.6209 H            1 AR6800   0.0000
    46 H2D          6.6971    27.8804    -8.4890 H            1 AR6800   0.0000
    47 H11          8.2190    29.2757   -10.1988 H            1 AR6800   0.0000
    48 H3'          7.8424    20.6948    -2.2320 H            1 AR6800   0.0000
    49 H13          7.1310    18.5485    -2.6612 H            1 AR6800   0.0000
    50 H3D          8.2179    27.0917    -6.9968 H            1 AR6800   0.0000
    51 H15          9.8579    28.6025    -6.4718 H            1 AR6800   0.0000
    52 H4'          9.2565    18.9328    -3.7681 H            1 AR6800   0.0000
    53 H4D         10.5353    27.4218    -8.6353 H            1 AR6800   0.0000
    54 H5'1         8.6695    20.9532    -4.8230 H            1 AR6800   0.0000
    55 H5'2        10.2994    20.9987    -4.7329 H            1 AR6800   0.0000
    56 H5D1        10.7008    25.9159    -6.7727 H            1 AR6800   0.0000
    57 H5D2        10.6180    24.9486    -8.0858 H            1 AR6800   0.0000
@<TRIPOS>BOND
     1    1    2      ar
     2    1    6      ar
     3    2    3      ar
     4    3    4      ar
     5    4    5      ar
     6    4   10       1
     7    5    6      ar
     8    5    8       1
     9    6    7       1
    10    8    9       2
    11    9   10       1
    12   10   13       1
    13   11   14      ar
    14   11   20      ar
    15   11   26       1
    16   11   34       1
    17   12   15      ar
    18   12   21      ar
    19   12   26       1
    20   12   36       1
    21   13   18       1
    22   13   30       1
    23   16   17       1
    24   16   22       1
    25   16   32       1
    26   18   19       1
    27   18   24       1
    28   22   23       1
    29   22   27       1
    30   24   25       1
    31   24   29       1
    32   27   28       1
    33   27   31       1
    34   29   30       1
    35   29   33       1
    36   31   32       1
    37   31   35       1
    38   33   34       1
    39   35   36       1
    40    2   37       1
    41    7   38       1
    42    7   39       1
    43    9   40       1
    44   13   41       1
    45   35   57       1
    46   35   56       1
    47   16   42       1
    48   17   43       1
    49   18   44       1
    50   19   45       1
    51   22   46       1
    52   23   47       1
    53   24   48       1
    54   25   49       1
    55   27   50       1
    56   28   51       1
    57   29   52       1
    58   31   53       1
    59   33   54       1
    60   33   55       1
@<TRIPOS>SUBSTRUCTURE
     1 AR6800      1 GROUP             4 A     AR6     0 **** AR6 A 800
