@<TRIPOS>MOLECULE
3ket_NAD_1_ligand
   70    74     1     0     0
SMALL
NO_CHARGES


@<TRIPOS>ATOM
     1 PA          -1.8110    -9.4910    10.6060 P.3          1 NAD213   0.0000
     2 O1A         -2.4410   -10.8230    10.3200 O.co2        1 NAD213   0.0000
     3 O2A         -2.1710    -8.2660     9.8330 O.co2        1 NAD213  -1.0000
     4 O5B         -0.1930    -9.6790    10.6520 O.3          1 NAD213   0.0000
     5 C5B          0.4550   -10.8930    11.0510 C.3          1 NAD213   0.0000
     6 C4B          1.7090   -11.1490    10.2080 C.3          1 NAD213   0.0000
     7 O4B          2.4820   -12.2260    10.7370 O.3          1 NAD213   0.0000
     8 C3B          1.3880   -11.5120     8.7490 C.3          1 NAD213   0.0000
     9 O3B          2.1980   -10.7170     7.8500 O.3          1 NAD213   0.0000
    10 C2B          1.7580   -12.9610     8.6620 C.3          1 NAD213   0.0000
    11 O2B          2.1700   -13.3420     7.3540 O.3          1 NAD213   0.0000
    12 C1B          2.8760   -13.0970     9.6850 C.3          1 NAD213   0.0000
    13 N9A          3.1430   -14.4910    10.1740 N.pl3        1 NAD213   0.0000
    14 C8A          2.2830   -15.4950    10.3820 C.2          1 NAD213   0.0000
    15 N7A          2.9410   -16.6020    10.8640 N.2          1 NAD213   0.0000
    16 C5A          4.2410   -16.2420    10.9540 C.ar         1 NAD213   0.0000
    17 C6A          5.3660   -16.9400    11.3480 C.ar         1 NAD213   0.0000
    18 N6A          5.2410   -18.2420    11.7440 N.pl3        1 NAD213   0.0000
    19 N1A          6.5560   -16.2750    11.3340 N.ar         1 NAD213   0.0000
    20 C2A          6.6380   -15.0000    10.9140 C.ar         1 NAD213   0.0000
    21 N3A          5.5660   -14.3140    10.5450 N.ar         1 NAD213   0.0000
    22 C4A          4.3640   -14.9270    10.5440 C.ar         1 NAD213   0.0000
    23 O3          -2.1010    -9.2260    12.1750 O.3          1 NAD213   0.0000
    24 PN          -2.0820    -7.7740    12.7980 P.3          1 NAD213   0.0000
    25 O1N         -3.4200    -7.2140    12.5220 O.co2        1 NAD213   0.0000
    26 O2N         -0.8920    -6.9910    12.3490 O.co2        1 NAD213  -1.0000
    27 O5D         -2.0180    -8.0580    14.3620 O.3          1 NAD213   0.0000
    28 C5D         -1.0620    -8.8920    14.9550 C.3          1 NAD213   0.0000
    29 C4D         -1.3640    -9.1130    16.4050 C.3          1 NAD213   0.0000
    30 O4D         -1.7300    -7.8940    17.0120 O.3          1 NAD213   0.0000
    31 C3D         -2.5320   -10.0630    16.6210 C.3          1 NAD213   0.0000
    32 O3D         -2.2350   -10.8530    17.8010 O.3          1 NAD213   0.0000
    33 C2D         -3.7160    -9.1390    16.8340 C.3          1 NAD213   0.0000
    34 O2D         -4.6840    -9.7410    17.6900 O.3          1 NAD213   0.0000
    35 C1D         -3.0530    -8.0060    17.5490 C.3          1 NAD213   0.0000
    36 N1N         -3.8430    -6.8240    17.3390 N.ar         1 NAD213   1.0000
    37 C2N         -3.6610    -6.0470    16.2430 C.ar         1 NAD213   0.0000
    38 C3N         -4.4650    -4.9100    16.0690 C.ar         1 NAD213   0.0000
    39 C7N         -4.2620    -4.0280    14.8820 C.2          1 NAD213   0.0000
    40 O7N         -4.6390    -2.7840    15.0120 O.2          1 NAD213   0.0000
    41 N7N         -3.7040    -4.4770    13.7610 N.am         1 NAD213   0.0000
    42 C4N         -5.4350    -4.5800    17.0060 C.ar         1 NAD213   0.0000
    43 C5N         -5.6020    -5.4100    18.1410 C.ar         1 NAD213   0.0000
    44 C6N         -4.7840    -6.5190    18.2880 C.ar         1 NAD213   0.0000
    45 H5B1        -0.1798   -11.6566    10.9330 H            1 NAD213   0.0000
    46 H5B2         0.7168   -10.8228    12.0136 H            1 NAD213   0.0000
    47 H4B          2.2705   -10.3216    10.2138 H            1 NAD213   0.0000
    48 H3B          0.4151   -11.3826     8.5575 H            1 NAD213   0.0000
    49 H5           3.1658   -10.8952     8.0276 H            1 NAD213   0.0000
    50 H2B          0.9790   -13.5216     8.9428 H            1 NAD213   0.0000
    51 H7           3.1582   -13.2166     7.2660 H            1 NAD213   0.0000
    52 H1B          3.7176   -12.7397     9.2799 H            1 NAD213   0.0000
    53 H8A          1.2989   -15.4469    10.2108 H            1 NAD213   0.0000
    54 H6A1         6.0486   -18.7570    12.0313 H            1 NAD213   0.0000
    55 H6A2         4.3419   -18.6797    11.7465 H            1 NAD213   0.0000
    56 H2A          7.5338   -14.5569    10.8792 H            1 NAD213   0.0000
    57 H5D1        -0.1606    -8.4674    14.8702 H            1 NAD213   0.0000
    58 H5D2        -1.0607    -9.7739    14.4836 H            1 NAD213   0.0000
    59 H4D         -0.5519    -9.4784    16.8600 H            1 NAD213   0.0000
    60 H3D         -2.6718   -10.6483    15.8223 H            1 NAD213   0.0000
    61 H17         -2.9857   -11.4910    17.9726 H            1 NAD213   0.0000
    62 H2D         -4.1186    -8.8458    15.9669 H            1 NAD213   0.0000
    63 H19         -5.4534    -9.1147    17.8155 H            1 NAD213   0.0000
    64 H1D         -3.0033    -8.2082    18.5271 H            1 NAD213   0.0000
    65 H2N         -2.9624    -6.2812    15.5669 H            1 NAD213   0.0000
    66 H7N1        -3.5813    -3.8617    12.9823 H            1 NAD213   0.0000
    67 H7N2        -3.4072    -5.4298    13.6970 H            1 NAD213   0.0000
    68 H4N         -6.0066    -3.7690    16.8813 H            1 NAD213   0.0000
    69 H5N         -6.2994    -5.1992    18.8259 H            1 NAD213   0.0000
    70 H6N         -4.8812    -7.1025    19.0943 H            1 NAD213   0.0000
@<TRIPOS>BOND
     1    1    2      ar
     2    1    3      ar
     3    1    4       1
     4    1   23       1
     5    4    5       1
     6    5    6       1
     7    6    7       1
     8    6    8       1
     9    7   12       1
    10    8    9       1
    11    8   10       1
    12   10   11       1
    13   10   12       1
    14   12   13       1
    15   13   14       1
    16   13   22       1
    17   14   15       2
    18   15   16       1
    19   16   17      ar
    20   16   22      ar
    21   17   18       1
    22   17   19      ar
    23   19   20      ar
    24   20   21      ar
    25   21   22      ar
    26   23   24       1
    27   24   25      ar
    28   24   26      ar
    29   24   27       1
    30   27   28       1
    31   28   29       1
    32   29   30       1
    33   29   31       1
    34   30   35       1
    35   31   32       1
    36   31   33       1
    37   33   34       1
    38   33   35       1
    39   35   36       1
    40   36   37      ar
    41   36   44      ar
    42   37   38      ar
    43   38   39       1
    44   38   42      ar
    45   39   40       2
    46   39   41      am
    47   42   43      ar
    48   43   44      ar
    49   44   70       1
    50    5   45       1
    51    5   46       1
    52    6   47       1
    53    8   48       1
    54    9   49       1
    55   10   50       1
    56   11   51       1
    57   12   52       1
    58   14   53       1
    59   18   54       1
    60   18   55       1
    61   20   56       1
    62   43   69       1
    63   28   57       1
    64   28   58       1
    65   29   59       1
    66   31   60       1
    67   32   61       1
    68   33   62       1
    69   34   63       1
    70   35   64       1
    71   37   65       1
    72   41   66       1
    73   41   67       1
    74   42   68       1
@<TRIPOS>SUBSTRUCTURE
     1 NAD213      1 GROUP             4 A     NAD     0 **** NAD A 213
