@<TRIPOS>MOLECULE
1xqp_8HG_1_ligand
   33    35     1     0     0
SMALL
NO_CHARGES


@<TRIPOS>ATOM
     1 O6          12.4740    23.5720    30.8840 O.2          1 8HG257   0.0000
     2 C6          11.4670    23.8180    30.2190 C.2          1 8HG257   0.0000
     3 N1          10.5350    22.7750    30.0480 N.pl3        1 8HG257   0.0000
     4 C2           9.3140    22.9360    29.3450 C.2          1 8HG257   0.0000
     5 N2           8.5050    21.8200    29.2170 N.pl3        1 8HG257   0.0000
     6 N3           9.0010    24.1030    28.8030 N.2          1 8HG257   0.0000
     7 C4           9.8800    25.1320    28.9390 C.2          1 8HG257   0.0000
     8 C5          11.0780    25.0520    29.5790 C.2          1 8HG257   0.0000
     9 N7          11.7440    26.3150    29.5080 N.pl3        1 8HG257   0.0000
    10 C8          10.8640    27.1990    28.8100 C.2          1 8HG257   0.0000
    11 O20         11.0420    28.3990    28.5790 O.2          1 8HG257   0.0000
    12 N9           9.7310    26.4440    28.4250 N.pl3        1 8HG257   0.0000
    13 C1'          8.5710    26.9590    27.7010 C.3          1 8HG257   0.0000
    14 O4'          7.5350    26.9890    28.6670 O.3          1 8HG257   0.0000
    15 C2'          8.0220    26.1740    26.5390 C.3          1 8HG257   0.0000
    16 C3'          6.5260    26.5150    26.5640 C.3          1 8HG257   0.0000
    17 O3'          6.2020    27.6990    25.8460 O.3          1 8HG257   0.0000
    18 C4'          6.2450    26.7200    28.0670 C.3          1 8HG257   0.0000
    19 C5'          5.4930    25.4820    28.6320 C.3          1 8HG257   0.0000
    20 O5'          6.0400    24.2550    28.3710 O.3          1 8HG257   0.0000
    21 H1           7.6346    21.8867    28.7292 H            1 8HG257   0.0000
    22 H2           8.7910    20.9471    29.6124 H            1 8HG257   0.0000
    23 H3          12.6477    26.5364    29.8745 H            1 8HG257   0.0000
    24 H1'          8.7632    27.8933    27.4008 H            1 8HG257   0.0000
    25 H2'1         8.1688    25.1932    26.6671 H            1 8HG257   0.0000
    26 H2'2         8.4420    26.4644    25.6792 H            1 8HG257   0.0000
    27 H3'          5.9917    25.7446    26.2161 H            1 8HG257   0.0000
    28 H8           6.2554    28.4864    26.4601 H            1 8HG257   0.0000
    29 H4'          5.6646    27.5267    28.1781 H            1 8HG257   0.0000
    30 H5'1         4.5691    25.4888    28.2494 H            1 8HG257   0.0000
    31 H5'2         5.4432    25.5858    29.6254 H            1 8HG257   0.0000
    32 H5'          6.9611    24.2115    28.7580 H            1 8HG257   0.0000
    33 H13         10.7444    21.8795    30.4407 H            1 8HG257   0.0000
@<TRIPOS>BOND
     1    1    2       2
     2    2    3       1
     3    2    8       1
     4    3    4       1
     5    4    5       1
     6    4    6       2
     7    6    7       1
     8    7    8       2
     9    7   12       1
    10    8    9       1
    11    9   10       1
    12   10   11       2
    13   10   12       1
    14   12   13       1
    15   13   14       1
    16   13   15       1
    17   14   18       1
    18   15   16       1
    19   16   17       1
    20   16   18       1
    21   18   19       1
    22   19   20       1
    23    5   21       1
    24    5   22       1
    25    3   33       1
    26    9   23       1
    27   13   24       1
    28   15   25       1
    29   15   26       1
    30   16   27       1
    31   17   28       1
    32   18   29       1
    33   19   30       1
    34   19   31       1
    35   20   32       1
@<TRIPOS>SUBSTRUCTURE
     1 8HG257      1 GROUP             4 A     8HG     0 **** 8HG A 257
