@<TRIPOS>MOLECULE
3a7d_FBN_1_ligand
   57    61     1     0     0
SMALL
NO_CHARGES


@<TRIPOS>ATOM
     1 C1          30.7590    -2.4750    -9.0070 C.ar         1 FBN304   0.0000
     2 N2          30.4510    -1.3210    -8.3640 N.ar         1 FBN304   0.0000
     3 C3          31.0740    -0.9870    -7.2180 C.ar         1 FBN304   0.0000
     4 N4          32.0230    -1.7510    -6.6450 N.ar         1 FBN304   0.0000
     5 C5          32.4360    -2.9230    -7.1800 C.ar         1 FBN304   0.0000
     6 C6          31.7890    -3.3590    -8.4400 C.ar         1 FBN304   0.0000
     7 N8          31.8880    -4.4170    -9.2700 N.2          1 FBN304   0.0000
     8 C9          31.0040    -4.2220   -10.2890 C.2          1 FBN304   0.0000
     9 N10         30.3350    -3.0650   -10.1270 N.pl3        1 FBN304   0.0000
    10 N11         33.3960    -3.6740    -6.5800 N.pl3        1 FBN304   0.0000
    11 C15         29.2890    -2.5140   -11.0150 C.3          1 FBN304   0.0000
    12 O16         28.2680    -3.4710   -11.2880 O.3          1 FBN304   0.0000
    13 C17         27.5340    -2.9320   -12.3970 C.3          1 FBN304   0.0000
    14 C18         28.4860    -2.0520   -13.1700 C.3          1 FBN304   0.0000
    15 C19         29.7910    -2.1510   -12.4080 C.3          1 FBN304   0.0000
    16 O21         27.9060    -0.7560   -13.0870 O.3          1 FBN304   0.0000
    17 O23         30.4970    -0.9120   -12.4350 O.3          1 FBN304   0.0000
    18 C27         27.0400    -3.9790   -13.3560 C.3          1 FBN304   0.0000
    19 N29         27.9150    -5.1090   -13.2140 N.pl3        1 FBN304   0.0000
    20 C32         27.7430    -6.1720   -12.4570 C.2          1 FBN304   0.0000
    21 C33         28.8480    -6.9510   -12.6590 C.2          1 FBN304   0.0000
    22 N34         29.6930    -6.3830   -13.5700 N.2          1 FBN304   0.0000
    23 N35         29.1100    -5.1550   -13.9530 N.2          1 FBN304   0.0000
    24 C37         28.8970    -8.2450   -11.9300 C.3          1 FBN304   0.0000
    25 N38         27.5060    -8.6090   -12.1120 N.am         1 FBN304   0.0000
    26 C41         27.2470    -9.2110   -13.2560 C.2          1 FBN304   0.0000
    27 C42         25.9050    -9.7720   -13.6080 C.ar         1 FBN304   0.0000
    28 O43         28.1580    -9.3730   -14.0570 O.2          1 FBN304   0.0000
    29 C45         24.6070    -9.4290   -12.9740 C.ar         1 FBN304   0.0000
    30 C46         23.4000   -10.1190   -13.4780 C.ar         1 FBN304   0.0000
    31 C47         23.5020   -11.0450   -14.5030 C.ar         1 FBN304   0.0000
    32 C48         24.7500   -11.3180   -15.0640 C.ar         1 FBN304   0.0000
    33 C49         25.9090   -10.7040   -14.6240 C.ar         1 FBN304   0.0000
    34 O52         24.4730    -8.5210   -11.9790 O.3          1 FBN304  -1.0000
    35 O53         22.2020    -9.8390   -12.9330 O.3          1 FBN304   0.0000
    36 N54         24.8930   -12.2470   -16.0890 N.2          1 FBN304   1.0000
    37 O55         26.0170   -12.4970   -16.4970 O.co2        1 FBN304   0.0000
    38 O56         23.9170   -12.8110   -16.5510 O.co2        1 FBN304  -1.0000
    39 H1          30.8194    -0.1296    -6.7707 H            1 FBN304   0.0000
    40 H2          30.8705    -4.8528   -11.0533 H            1 FBN304   0.0000
    41 H3          33.6863    -4.5373    -6.9929 H            1 FBN304   0.0000
    42 H4          33.8123    -3.3635    -5.7254 H            1 FBN304   0.0000
    43 H5          28.8820    -1.7067   -10.5877 H            1 FBN304   0.0000
    44 H6          26.7645    -2.3879   -12.0625 H            1 FBN304   0.0000
    45 H7          28.5853    -2.3547   -14.1179 H            1 FBN304   0.0000
    46 H8          30.3586    -2.8861   -12.7787 H            1 FBN304   0.0000
    47 H9          27.8366    -0.4827   -12.1276 H            1 FBN304   0.0000
    48 H10         29.8927    -0.1772   -12.1268 H            1 FBN304   0.0000
    49 H11         27.0735    -3.6320   -14.2933 H            1 FBN304   0.0000
    50 H12         26.1011    -4.2388   -13.1300 H            1 FBN304   0.0000
    51 H13         26.9661    -6.3687   -11.8589 H            1 FBN304   0.0000
    52 H14         29.1390    -8.1314   -10.9664 H            1 FBN304   0.0000
    53 H15         29.5218    -8.8996   -12.3557 H            1 FBN304   0.0000
    54 H16         26.8020    -8.4195   -11.4275 H            1 FBN304   0.0000
    55 H17         22.6859   -11.5152   -14.8390 H            1 FBN304   0.0000
    56 H18         26.7779   -10.9440   -15.0569 H            1 FBN304   0.0000
    57 H19         21.3804   -10.3007   -13.2674 H            1 FBN304   0.0000
@<TRIPOS>BOND
     1    1    2      ar
     2    1    6      ar
     3    1    9       1
     4    2    3      ar
     5    3    4      ar
     6    4    5      ar
     7    5    6      ar
     8    5   10       1
     9    6    7       1
    10    7    8       2
    11    8    9       1
    12    9   11       1
    13   11   12       1
    14   11   15       1
    15   12   13       1
    16   13   14       1
    17   13   18       1
    18   14   15       1
    19   14   16       1
    20   15   17       1
    21   18   19       1
    22   19   20       1
    23   19   23       1
    24   20   21       2
    25   21   22       1
    26   21   24       1
    27   22   23       2
    28   24   25       1
    29   25   26      am
    30   26   27       1
    31   26   28       2
    32   27   29      ar
    33   27   33      ar
    34   29   30      ar
    35   29   34       1
    36   30   31      ar
    37   30   35       1
    38   31   32      ar
    39   32   33      ar
    40   32   36       1
    41   36   37      ar
    42   36   38      ar
    43    3   39       1
    44    8   40       1
    45   10   41       1
    46   10   42       1
    47   11   43       1
    48   13   44       1
    49   14   45       1
    50   15   46       1
    51   16   47       1
    52   17   48       1
    53   18   49       1
    54   18   50       1
    55   20   51       1
    56   24   52       1
    57   24   53       1
    58   25   54       1
    59   31   55       1
    60   33   56       1
    61   35   57       1
@<TRIPOS>SUBSTRUCTURE
     1 FBN304      1 GROUP             4 A     FBN     0 **** FBN A 304
