@<TRIPOS>MOLECULE
4dt2_0LV_2_ligand
   27    28     1     0     0
SMALL
NO_CHARGES


@<TRIPOS>ATOM
     1 CAH         -7.5950    54.9420   -26.8740 C.3          1 0LV504   0.0000
     2 CAM         -6.7340    55.2540   -28.0300 C.3          1 0LV504   0.0000
     3 CAA         -6.6950    56.7340   -28.2710 C.3          1 0LV504   0.0000
     4 CAB         -7.2340    54.5300   -29.2970 C.3          1 0LV504   0.0000
     5 OAI         -5.4480    54.7600   -27.6980 O.3          1 0LV504   0.0000
     6 CAL         -5.5820    53.9030   -26.5560 C.ar         1 0LV504   0.0000
     7 CAK         -6.8540    54.0060   -26.0600 C.ar         1 0LV504   0.0000
     8 CAF         -7.2300    53.2300   -24.8990 C.ar         1 0LV504   0.0000
     9 CAD         -6.3140    52.3820   -24.2690 C.ar         1 0LV504   0.0000
    10 CAE         -5.0240    52.2780   -24.7810 C.ar         1 0LV504   0.0000
    11 CAJ         -4.6490    53.0360   -25.9260 C.ar         1 0LV504   0.0000
    12 CAG         -3.2790    52.9390   -26.4860 C.3          1 0LV504   0.0000
    13 OAC         -3.2090    52.6590   -27.8120 O.3          1 0LV504   0.0000
    14 HAH1        -8.4528    54.5303   -27.1818 H            1 0LV504   0.0000
    15 HAH2        -7.7919    55.7732   -26.3541 H            1 0LV504   0.0000
    16 HAA1        -6.1079    56.9284   -29.0569 H            1 0LV504   0.0000
    17 HAA2        -7.6200    57.0661   -28.4557 H            1 0LV504   0.0000
    18 HAA3        -6.3311    57.1941   -27.4612 H            1 0LV504   0.0000
    19 HAB1        -6.6370    54.7551   -30.0670 H            1 0LV504   0.0000
    20 HAB2        -7.2214    53.5420   -29.1432 H            1 0LV504   0.0000
    21 HAB3        -8.1677    54.8236   -29.5021 H            1 0LV504   0.0000
    22 HAF         -8.1609    53.3011   -24.5407 H            1 0LV504   0.0000
    23 HAD         -6.5822    51.8571   -23.4612 H            1 0LV504   0.0000
    24 HAE         -4.3604    51.6706   -24.3444 H            1 0LV504   0.0000
    25 HAG1        -2.7947    52.2166   -25.9925 H            1 0LV504   0.0000
    26 HAG2        -2.8201    53.8139   -26.3311 H            1 0LV504   0.0000
    27 HAC         -3.6752    53.3767   -28.3293 H            1 0LV504   0.0000
@<TRIPOS>BOND
     1    1    2       1
     2    1    7       1
     3    2    3       1
     4    2    4       1
     5    2    5       1
     6    5    6       1
     7    6    7      ar
     8    6   11      ar
     9    7    8      ar
    10    8    9      ar
    11    9   10      ar
    12   10   11      ar
    13   11   12       1
    14   12   13       1
    15    1   14       1
    16    1   15       1
    17    3   16       1
    18    3   17       1
    19    3   18       1
    20    4   19       1
    21    4   20       1
    22    4   21       1
    23    8   22       1
    24    9   23       1
    25   10   24       1
    26   12   25       1
    27   12   26       1
    28   13   27       1
@<TRIPOS>SUBSTRUCTURE
     1 0LV504      1 GROUP             4 B     0LV     0 **** 0LV B 504
