@<TRIPOS>MOLECULE
3dy6_DY6_1_ligand
   50    53     1     0     0
SMALL
NO_CHARGES


@<TRIPOS>ATOM
     1 N1          33.1580     7.3050    61.1190 N.3          1 DY6478   0.0000
     2 S2          32.6350     5.7080    61.4620 S.o2         1 DY6478   0.0000
     3 C3          34.4990     7.3470    60.4950 C.3          1 DY6478   0.0000
     4 C4          32.8260     8.3220    62.1630 C.3          1 DY6478   0.0000
     5 C5          31.4060     5.8060    60.1760 C.ar         1 DY6478   0.0000
     6 O6          31.9820     5.5900    62.7600 O.2          1 DY6478   0.0000
     7 O7          33.6200     4.7390    61.0290 O.2          1 DY6478   0.0000
     8 C8          35.0550     8.7150    60.3940 C.ar         1 DY6478   0.0000
     9 C9          33.9220     9.2930    62.5420 C.3          1 DY6478   0.0000
    10 C10         31.7060     5.3660    58.9030 C.ar         1 DY6478   0.0000
    11 C11         30.1790     6.3550    60.4830 C.ar         1 DY6478   0.0000
    12 C12         34.7770     9.6430    61.3740 C.ar         1 DY6478   0.0000
    13 C13         35.8480     9.0440    59.3210 C.ar         1 DY6478   0.0000
    14 C14         30.7310     5.4710    57.9300 C.ar         1 DY6478   0.0000
    15 C15         29.2220     6.4560    59.4960 C.ar         1 DY6478   0.0000
    16 C16         35.3000    10.9120    61.2780 C.ar         1 DY6478   0.0000
    17 C17         36.3680    10.3140    59.2340 C.ar         1 DY6478   0.0000
    18 C18         30.9970     5.0030    56.5630 C.2          1 DY6478   0.0000
    19 C19         29.4990     6.0090    58.2200 C.ar         1 DY6478   0.0000
    20 C20         36.0970    11.2480    60.2100 C.ar         1 DY6478   0.0000
    21 N21         30.5110     5.8340    55.5860 N.am         1 DY6478   0.0000
    22 O22         31.5980     3.9530    56.3740 O.2          1 DY6478   0.0000
    23 C23         30.6860     5.5720    54.2090 C.ar         1 DY6478   0.0000
    24 C24         30.0130     6.3410    53.2820 C.ar         1 DY6478   0.0000
    25 C25         31.5210     4.5620    53.7860 C.ar         1 DY6478   0.0000
    26 C26         30.1710     6.1050    51.9390 C.ar         1 DY6478   0.0000
    27 C27         29.1170     7.4220    53.7000 C.2          1 DY6478   0.0000
    28 C28         31.6760     4.3240    52.4430 C.ar         1 DY6478   0.0000
    29 C29         31.0030     5.0940    51.5240 C.ar         1 DY6478   0.0000
    30 O30         28.6260     7.3480    54.8560 O.co2        1 DY6478   0.0000
    31 O31         28.9160     8.3300    52.8510 O.co2        1 DY6478  -1.0000
    32 H1          34.4328     6.9625    59.5743 H            1 DY6478   0.0000
    33 H2          35.1224     6.7908    61.0445 H            1 DY6478   0.0000
    34 H3          32.5586     7.8293    62.9911 H            1 DY6478   0.0000
    35 H4          32.0503     8.8570    61.8283 H            1 DY6478   0.0000
    36 H5          34.4938     8.8764    63.2487 H            1 DY6478   0.0000
    37 H6          33.5051    10.1284    62.9002 H            1 DY6478   0.0000
    38 H7          32.6045     4.9817    58.6907 H            1 DY6478   0.0000
    39 H8          29.9857     6.6759    61.4102 H            1 DY6478   0.0000
    40 H9          36.0447     8.3674    58.6114 H            1 DY6478   0.0000
    41 H10         28.3280     6.8527    59.7043 H            1 DY6478   0.0000
    42 H11         35.1002    11.5899    61.9855 H            1 DY6478   0.0000
    43 H12         36.9468    10.5614    58.4570 H            1 DY6478   0.0000
    44 H13         28.8029     6.0764    57.5053 H            1 DY6478   0.0000
    45 H14         36.4798    12.1693    60.1413 H            1 DY6478   0.0000
    46 H15         30.0135     6.6573    55.8591 H            1 DY6478   0.0000
    47 H16         32.0126     4.0041    54.4546 H            1 DY6478   0.0000
    48 H17         29.6843     6.6646    51.2682 H            1 DY6478   0.0000
    49 H18         32.2793     3.5894    52.1326 H            1 DY6478   0.0000
    50 H19         31.1201     4.9168    50.5468 H            1 DY6478   0.0000
@<TRIPOS>BOND
     1    1    2       1
     2    1    3       1
     3    1    4       1
     4    2    5       1
     5    2    6       2
     6    2    7       2
     7    3    8       1
     8    4    9       1
     9    5   10      ar
    10    5   11      ar
    11    8   12      ar
    12    8   13      ar
    13    9   12       1
    14   10   14      ar
    15   11   15      ar
    16   12   16      ar
    17   13   17      ar
    18   14   18       1
    19   14   19      ar
    20   15   19      ar
    21   16   20      ar
    22   17   20      ar
    23   18   21      am
    24   18   22       2
    25   21   23       1
    26   23   24      ar
    27   23   25      ar
    28   24   26      ar
    29   24   27       1
    30   25   28      ar
    31   26   29      ar
    32   27   30      ar
    33   27   31      ar
    34   28   29      ar
    35    3   32       1
    36    3   33       1
    37    4   34       1
    38    4   35       1
    39    9   36       1
    40    9   37       1
    41   10   38       1
    42   11   39       1
    43   13   40       1
    44   15   41       1
    45   16   42       1
    46   17   43       1
    47   19   44       1
    48   20   45       1
    49   21   46       1
    50   25   47       1
    51   26   48       1
    52   28   49       1
    53   29   50       1
@<TRIPOS>SUBSTRUCTURE
     1 DY6478      1 GROUP             4 A     DY6     0 **** DY6 A 478
