@<TRIPOS>MOLECULE
4nzo_ANP_1_ligand
   44    46     1     0     0
SMALL
NO_CHARGES


@<TRIPOS>ATOM
     1 PG           1.8370    13.5660     9.3610 P.3          1 ANP401   0.0000
     2 O1G          2.9880    13.9700     8.4650 O.co2        1 ANP401   0.0000
     3 O2G          1.6410    14.4060    10.6180 O.co2        1 ANP401  -1.0000
     4 O3G          0.5160    13.2860     8.6680 O.co2        1 ANP401  -1.0000
     5 PB           1.7290    10.5780    10.2100 P.3          1 ANP401   0.0000
     6 O1B          0.7450    10.5100     9.0420 O.co2        1 ANP401   0.0000
     7 O2B          1.2000    10.2890    11.5770 O.co2        1 ANP401  -1.0000
     8 N3B          2.5500    12.0730    10.0750 N.3          1 ANP401   0.0000
     9 PA           3.9210     9.0440     9.1180 P.3          1 ANP401   0.0000
    10 O1A          3.6200     7.8960     8.1540 O.co2        1 ANP401   0.0000
    11 O2A          4.5930    10.3050     8.6830 O.co2        1 ANP401  -1.0000
    12 O3A          2.6890     9.2780    10.0860 O.3          1 ANP401   0.0000
    13 O5'          4.9220     8.4590    10.2380 O.3          1 ANP401   0.0000
    14 C5'          5.4050     9.3200    11.2870 C.3          1 ANP401   0.0000
    15 C4'          6.9240     9.3520    11.3500 C.3          1 ANP401   0.0000
    16 O4'          7.4740     8.0710    11.6460 O.3          1 ANP401   0.0000
    17 C3'          7.5770     9.7460    10.0330 C.3          1 ANP401   0.0000
    18 O3'          7.6910    11.1510     9.8810 O.3          1 ANP401   0.0000
    19 C2'          8.9460     9.1290    10.1200 C.3          1 ANP401   0.0000
    20 O2'          9.7630     9.9230    10.9950 O.3          1 ANP401   0.0000
    21 C1'          8.6230     7.8450    10.8180 C.3          1 ANP401   0.0000
    22 N9           8.2910     6.7470     9.8880 N.pl3        1 ANP401   0.0000
    23 C8           7.0990     6.3800     9.3510 C.2          1 ANP401   0.0000
    24 N7           7.2550     5.2490     8.5830 N.2          1 ANP401   0.0000
    25 C5           8.5430     4.8980     8.6470 C.ar         1 ANP401   0.0000
    26 C6           9.3590     3.8010     8.1000 C.ar         1 ANP401   0.0000
    27 N6           8.7610     2.8850     7.3270 N.pl3        1 ANP401   0.0000
    28 N1          10.6800     3.7720     8.3970 N.ar         1 ANP401   0.0000
    29 C2          11.2300     4.7210     9.1920 C.ar         1 ANP401   0.0000
    30 N3          10.5260     5.7310     9.7350 N.ar         1 ANP401   0.0000
    31 C4           9.2120     5.8740     9.4880 C.ar         1 ANP401   0.0000
    32 H3B          2.8142    12.3201    11.0073 H            1 ANP401   0.0000
    33 H5'1         5.0532     8.9892    12.1627 H            1 ANP401   0.0000
    34 H5'2         5.0699    10.2476    11.1221 H            1 ANP401   0.0000
    35 H4'          7.2063     9.9985    12.0588 H            1 ANP401   0.0000
    36 H3'          7.0697     9.3551     9.2650 H            1 ANP401   0.0000
    37 H6           8.2483    11.5225    10.6236 H            1 ANP401   0.0000
    38 H2'          9.3643     8.9872     9.2228 H            1 ANP401   0.0000
    39 H8          10.2337    10.6274    10.4636 H            1 ANP401   0.0000
    40 H1'          9.3970     7.5737    11.3901 H            1 ANP401   0.0000
    41 H10          6.2341     6.8614     9.4930 H            1 ANP401   0.0000
    42 H11          9.2931     2.1302     6.9434 H            1 ANP401   0.0000
    43 H12          7.7825     2.9559     7.1335 H            1 ANP401   0.0000
    44 H13         12.2097     4.6682     9.3853 H            1 ANP401   0.0000
@<TRIPOS>BOND
     1    1    2      ar
     2    1    3      ar
     3    1    4      ar
     4    1    8       1
     5    5    6      ar
     6    5    7      ar
     7    5    8       1
     8    5   12       1
     9    9   10      ar
    10    9   11      ar
    11    9   12       1
    12    9   13       1
    13   13   14       1
    14   14   15       1
    15   15   16       1
    16   15   17       1
    17   16   21       1
    18   17   18       1
    19   17   19       1
    20   19   20       1
    21   19   21       1
    22   21   22       1
    23   22   23       1
    24   22   31       1
    25   23   24       2
    26   24   25       1
    27   25   26      ar
    28   25   31      ar
    29   26   27       1
    30   26   28      ar
    31   28   29      ar
    32   29   30      ar
    33   30   31      ar
    34   29   44       1
    35   27   43       1
    36   27   42       1
    37    8   32       1
    38   23   41       1
    39   14   33       1
    40   14   34       1
    41   15   35       1
    42   17   36       1
    43   18   37       1
    44   19   38       1
    45   20   39       1
    46   21   40       1
@<TRIPOS>SUBSTRUCTURE
     1 ANP401      1 GROUP             4 A     ANP     0 **** ANP A 401
