@<TRIPOS>MOLECULE
2e1z_B4P_1_ligand
   77    82     1     0     0
SMALL
NO_CHARGES


@<TRIPOS>ATOM
     1 PA          16.1860    42.9750    54.8720 P.3          1 B4P403   0.0000
     2 O1A         16.0600    44.1770    53.9590 O.co2        1 B4P403   0.0000
     3 O2A         15.8600    43.1400    56.3400 O.co2        1 B4P403  -1.0000
     4 O3A         15.3730    41.7150    54.2880 O.3          1 B4P403   0.0000
     5 PB          13.7590    41.6030    54.3570 P.3          1 B4P403   0.0000
     6 O1B         13.2800    42.3160    55.6100 O.co2        1 B4P403   0.0000
     7 O2B         13.4050    40.1510    54.1100 O.co2        1 B4P403  -1.0000
     8 O3B         13.2670    42.5320    53.1290 O.3          1 B4P403   0.0000
     9 PG          13.5180    42.1870    51.5650 P.3          1 B4P403   0.0000
    10 O1G         14.7580    41.3270    51.4530 O.co2        1 B4P403   0.0000
    11 O2G         13.4270    43.5070    50.8420 O.co2        1 B4P403  -1.0000
    12 O3G         12.2070    41.2850    51.2660 O.3          1 B4P403   0.0000
    13 PD          12.0610    40.2310    50.0500 P.3          1 B4P403   0.0000
    14 O1D         12.4140    38.8290    50.5140 O.co2        1 B4P403   0.0000
    15 O2D         12.7430    40.8220    48.8400 O.co2        1 B4P403  -1.0000
    16 O5E         17.6850    42.3930    54.7730 O.3          1 B4P403   0.0000
    17 C5E         18.0530    41.2120    55.4900 C.3          1 B4P403   0.0000
    18 C4E         19.5400    40.9850    55.2870 C.3          1 B4P403   0.0000
    19 O4E         20.2090    42.1400    55.7970 O.3          1 B4P403   0.0000
    20 C3E         20.1460    39.7670    56.0020 C.3          1 B4P403   0.0000
    21 O3E         21.1050    39.0990    55.1730 O.3          1 B4P403   0.0000
    22 C2E         20.9210    40.3700    57.1340 C.3          1 B4P403   0.0000
    23 O2E         22.0640    39.6000    57.5220 O.3          1 B4P403   0.0000
    24 C1E         21.3580    41.6750    56.5030 C.3          1 B4P403   0.0000
    25 N9A         21.8530    42.5400    57.5790 N.pl3        1 B4P403   0.0000
    26 C8A         21.1300    43.1090    58.5670 C.2          1 B4P403   0.0000
    27 N7A         21.9500    43.8160    59.3850 N.2          1 B4P403   0.0000
    28 C5A         23.2100    43.6750    58.9210 C.ar         1 B4P403   0.0000
    29 C6A         24.5620    44.1350    59.3060 C.ar         1 B4P403   0.0000
    30 N6A         24.7360    44.9250    60.3930 N.pl3        1 B4P403   0.0000
    31 N1A         25.6100    43.7500    58.5440 N.ar         1 B4P403   0.0000
    32 C2A         25.4650    42.9690    57.4580 C.ar         1 B4P403   0.0000
    33 N3A         24.2670    42.5110    57.0580 N.ar         1 B4P403   0.0000
    34 C4A         23.1350    42.8270    57.7320 C.ar         1 B4P403   0.0000
    35 O5F         10.4670    40.2830    49.7980 O.3          1 B4P403   0.0000
    36 C5F          9.8270    41.5330    49.5180 C.3          1 B4P403   0.0000
    37 C4F          8.4080    41.2970    49.0080 C.3          1 B4P403   0.0000
    38 O4F          8.4210    40.4430    47.8570 O.3          1 B4P403   0.0000
    39 C3F          7.5420    40.6260    50.0690 C.3          1 B4P403   0.0000
    40 O3F          6.3160    41.3400    50.2350 O.3          1 B4P403   0.0000
    41 C2F          7.3020    39.2220    49.5430 C.3          1 B4P403   0.0000
    42 O2F          6.0090    38.7120    49.8940 O.3          1 B4P403   0.0000
    43 C1F          7.4620    39.3940    48.0340 C.3          1 B4P403   0.0000
    44 N9B          7.8220    38.1300    47.3280 N.pl3        1 B4P403   0.0000
    45 C8B          8.5740    37.1050    47.7930 C.2          1 B4P403   0.0000
    46 N7B          8.6590    36.1220    46.8580 N.2          1 B4P403   0.0000
    47 C5B          7.9470    36.5090    45.7770 C.ar         1 B4P403   0.0000
    48 C6B          7.6180    35.9410    44.4410 C.ar         1 B4P403   0.0000
    49 N6B          8.0990    34.7230    44.0780 N.pl3        1 B4P403   0.0000
    50 N1B          6.8400    36.6830    43.6050 N.ar         1 B4P403   0.0000
    51 C2B          6.3690    37.9010    43.9560 C.ar         1 B4P403   0.0000
    52 N3B          6.6340    38.4680    45.1550 N.ar         1 B4P403   0.0000
    53 C4B          7.3970    37.8360    46.0910 C.ar         1 B4P403   0.0000
    54 H5E1        17.5392    40.4286    55.1403 H            1 B4P403   0.0000
    55 H5E2        17.8576    41.3311    56.4635 H            1 B4P403   0.0000
    56 H4E         19.7251    40.9102    54.3071 H            1 B4P403   0.0000
    57 H3E         19.4391    39.1402    56.3295 H            1 B4P403   0.0000
    58 H5          20.6444    38.3974    54.6293 H            1 B4P403   0.0000
    59 H2E         20.3256    40.5391    57.9194 H            1 B4P403   0.0000
    60 H7          21.8894    38.6315    57.3444 H            1 B4P403   0.0000
    61 H1E         22.0973    41.4980    55.8533 H            1 B4P403   0.0000
    62 H8A         20.1401    43.0225    58.6790 H            1 B4P403   0.0000
    63 H6A1        25.6534    45.2317    60.6465 H            1 B4P403   0.0000
    64 H6A2        23.9470    45.2013    60.9417 H            1 B4P403   0.0000
    65 H2A         26.2773    42.7208    56.9302 H            1 B4P403   0.0000
    66 H5F1        10.3509    42.0235    48.8216 H            1 B4P403   0.0000
    67 H5F2         9.7906    42.0799    50.3544 H            1 B4P403   0.0000
    68 H4F          7.9993    42.1752    48.7594 H            1 B4P403   0.0000
    69 H3F          8.0351    40.5861    50.9381 H            1 B4P403   0.0000
    70 H17          6.0635    41.7744    49.3704 H            1 B4P403   0.0000
    71 H2F          8.0112    38.6075    49.8886 H            1 B4P403   0.0000
    72 H19          5.3509    38.9524    49.1805 H            1 B4P403   0.0000
    73 H1F          6.5879    39.7122    47.6670 H            1 B4P403   0.0000
    74 H8B          9.0051    37.0752    48.6948 H            1 B4P403   0.0000
    75 H6B1         7.8758    34.3447    43.1796 H            1 B4P403   0.0000
    76 H6B2         8.6762    34.2049    44.7093 H            1 B4P403   0.0000
    77 H2B          5.8019    38.4027    43.3028 H            1 B4P403   0.0000
@<TRIPOS>BOND
     1    1    2      ar
     2    1    3      ar
     3    1    4       1
     4    1   16       1
     5    4    5       1
     6    5    6      ar
     7    5    7      ar
     8    5    8       1
     9    8    9       1
    10    9   10      ar
    11    9   11      ar
    12    9   12       1
    13   12   13       1
    14   13   14      ar
    15   13   15      ar
    16   13   35       1
    17   16   17       1
    18   17   18       1
    19   18   19       1
    20   18   20       1
    21   19   24       1
    22   20   21       1
    23   20   22       1
    24   22   23       1
    25   22   24       1
    26   24   25       1
    27   25   26       1
    28   25   34       1
    29   26   27       2
    30   27   28       1
    31   28   29      ar
    32   28   34      ar
    33   29   30       1
    34   29   31      ar
    35   31   32      ar
    36   32   33      ar
    37   33   34      ar
    38   35   36       1
    39   36   37       1
    40   37   38       1
    41   37   39       1
    42   38   43       1
    43   39   40       1
    44   39   41       1
    45   41   42       1
    46   41   43       1
    47   43   44       1
    48   44   45       1
    49   44   53       1
    50   45   46       2
    51   46   47       1
    52   47   48      ar
    53   47   53      ar
    54   48   49       1
    55   48   50      ar
    56   50   51      ar
    57   51   52      ar
    58   52   53      ar
    59   51   77       1
    60   49   76       1
    61   49   75       1
    62   45   74       1
    63   17   54       1
    64   17   55       1
    65   18   56       1
    66   20   57       1
    67   21   58       1
    68   22   59       1
    69   23   60       1
    70   24   61       1
    71   26   62       1
    72   30   63       1
    73   30   64       1
    74   32   65       1
    75   36   66       1
    76   36   67       1
    77   37   68       1
    78   39   69       1
    79   40   70       1
    80   41   71       1
    81   42   72       1
    82   43   73       1
@<TRIPOS>SUBSTRUCTURE
     1 B4P403      1 GROUP             4 A     B4P     0 **** B4P A 403
