@<TRIPOS>MOLECULE
3fcc_ATP_1_ligand
   43    45     1     0     0
SMALL
NO_CHARGES


@<TRIPOS>ATOM
     1 PG          21.4920    -4.1900     7.7810 P.3          1 ATP711   0.0000
     2 O1G         22.5180    -5.0270     8.3650 O.co2        1 ATP711   0.0000
     3 O2G         21.9550    -2.7690     7.7790 O.co2        1 ATP711  -1.0000
     4 O3G         21.2240    -4.6110     6.4250 O.co2        1 ATP711  -1.0000
     5 PB          20.0260    -5.2660     9.8900 P.3          1 ATP711   0.0000
     6 O1B         18.6860    -5.1280    10.5110 O.co2        1 ATP711   0.0000
     7 O2B         21.0610    -4.9460    10.8530 O.co2        1 ATP711  -1.0000
     8 O3B         20.1230    -4.2840     8.6430 O.3          1 ATP711   0.0000
     9 PA          19.3480    -7.9840     9.8920 P.3          1 ATP711   0.0000
    10 O1A         18.0690    -8.0230     9.0310 O.co2        1 ATP711   0.0000
    11 O2A         20.1140    -9.2440     9.7430 O.co2        1 ATP711  -1.0000
    12 O3A         20.2670    -6.7650     9.3830 O.3          1 ATP711   0.0000
    13 O5'         18.9360    -7.7500    11.4900 O.3          1 ATP711   0.0000
    14 C5'         19.8500    -8.2250    12.6170 C.3          1 ATP711   0.0000
    15 C4'         19.8490    -7.3260    13.6000 C.3          1 ATP711   0.0000
    16 O4'         18.5040    -7.2250    14.2400 O.3          1 ATP711   0.0000
    17 C3'         20.8360    -7.7770    14.7350 C.3          1 ATP711   0.0000
    18 O3'         22.1300    -7.3620    14.4500 O.3          1 ATP711   0.0000
    19 C2'         20.1120    -7.2570    16.0370 C.3          1 ATP711   0.0000
    20 O2'         20.6160    -5.8400    16.3140 O.3          1 ATP711   0.0000
    21 C1'         18.6360    -7.1660    15.6720 C.3          1 ATP711   0.0000
    22 N9          17.9600    -8.1730    16.2650 N.pl3        1 ATP711   0.0000
    23 C8          17.7400    -9.4640    15.7570 C.2          1 ATP711   0.0000
    24 N7          17.0560   -10.1520    16.6110 N.2          1 ATP711   0.0000
    25 C5          16.7930    -9.3910    17.6920 C.ar         1 ATP711   0.0000
    26 C6          16.1130    -9.6050    18.8930 C.ar         1 ATP711   0.0000
    27 N6          15.5370   -10.7960    19.1630 N.pl3        1 ATP711   0.0000
    28 N1          16.0280    -8.5700    19.8250 N.ar         1 ATP711   0.0000
    29 C2          16.6250    -7.3100    19.5660 C.ar         1 ATP711   0.0000
    30 N3          17.2970    -7.0620    18.4060 N.ar         1 ATP711   0.0000
    31 C4          17.3580    -8.1430    17.4880 C.ar         1 ATP711   0.0000
    32 H5'1        20.7804    -8.3352    12.2673 H            1 ATP711   0.0000
    33 H5'2        19.5195    -9.1015    12.9669 H            1 ATP711   0.0000
    34 H4'         20.1246    -6.4329    13.2445 H            1 ATP711   0.0000
    35 H3'         20.8344    -8.7766    14.7625 H            1 ATP711   0.0000
    36 H5          22.7437    -7.6574    15.1822 H            1 ATP711   0.0000
    37 H2'         20.2656    -7.8651    16.8158 H            1 ATP711   0.0000
    38 H7          20.1728    -5.4834    17.1365 H            1 ATP711   0.0000
    39 H1'         18.2727    -6.2930    15.9974 H            1 ATP711   0.0000
    40 H9          18.0626    -9.7989    14.8717 H            1 ATP711   0.0000
    41 H10         15.0537   -10.9331    20.0277 H            1 ATP711   0.0000
    42 H11         15.5937   -11.5410    18.4983 H            1 ATP711   0.0000
    43 H12         16.5512    -6.5854    20.2512 H            1 ATP711   0.0000
@<TRIPOS>BOND
     1    1    2      ar
     2    1    3      ar
     3    1    4      ar
     4    1    8       1
     5    5    6      ar
     6    5    7      ar
     7    5    8       1
     8    5   12       1
     9    9   10      ar
    10    9   11      ar
    11    9   12       1
    12    9   13       1
    13   13   14       1
    14   14   15       1
    15   15   16       1
    16   15   17       1
    17   16   21       1
    18   17   18       1
    19   17   19       1
    20   19   20       1
    21   19   21       1
    22   21   22       1
    23   22   23       1
    24   22   31       1
    25   23   24       2
    26   24   25       1
    27   25   26      ar
    28   25   31      ar
    29   26   27       1
    30   26   28      ar
    31   28   29      ar
    32   29   30      ar
    33   30   31      ar
    34   29   43       1
    35   27   42       1
    36   27   41       1
    37   23   40       1
    38   14   32       1
    39   14   33       1
    40   15   34       1
    41   17   35       1
    42   18   36       1
    43   19   37       1
    44   20   38       1
    45   21   39       1
@<TRIPOS>SUBSTRUCTURE
     1 ATP711      1 GROUP             4 A     ATP     0 **** ATP A 711
