@<TRIPOS>MOLECULE
4i9a_NCN_2_ligand
   34    35     1     0     0
SMALL
NO_CHARGES


@<TRIPOS>ATOM
     1 P          -14.7560    98.3890    16.7090 P.3          1 NCN301   0.0000
     2 O1P        -15.0200    99.0710    18.0300 O.co2        1 NCN301   0.0000
     3 O2P        -14.8430    99.2250    15.4500 O.co2        1 NCN301  -1.0000
     4 O3P        -13.3850    97.7520    16.7400 O.co2        1 NCN301  -1.0000
     5 O5'        -15.8410    97.2280    16.5710 O.3          1 NCN301   0.0000
     6 C5'        -16.4870    97.0000    15.3240 C.3          1 NCN301   0.0000
     7 C4'        -17.0590    95.6260    14.9080 C.3          1 NCN301   0.0000
     8 O4'        -16.9180    94.6940    16.0060 O.3          1 NCN301   0.0000
     9 C3'        -18.5320    95.4860    14.4630 C.3          1 NCN301   0.0000
    10 O3'        -18.6370    95.5880    13.0410 O.3          1 NCN301   0.0000
    11 C2'        -18.9390    94.0730    14.9360 C.3          1 NCN301   0.0000
    12 O2'        -19.3090    93.2590    13.8220 O.3          1 NCN301   0.0000
    13 C1'        -17.6620    93.5210    15.6110 C.3          1 NCN301   0.0000
    14 N1         -18.0450    92.6900    16.8760 N.ar         1 NCN301   1.0000
    15 C6         -18.6320    93.2400    17.9800 C.ar         1 NCN301   0.0000
    16 C5         -19.0730    92.4010    19.0500 C.ar         1 NCN301   0.0000
    17 C4         -18.9190    91.0250    18.9680 C.ar         1 NCN301   0.0000
    18 C3         -18.3440    90.4710    17.8650 C.ar         1 NCN301   0.0000
    19 C2         -17.8970    91.3060    16.7890 C.ar         1 NCN301   0.0000
    20 C7         -18.1910    88.9980    17.8040 C.2          1 NCN301   0.0000
    21 O7         -18.5310    88.2990    18.8120 O.co2        1 NCN301   0.0000
    22 O8         -17.7380    88.4410    16.7810 O.co2        1 NCN301  -1.0000
    23 H5'1       -15.8202    97.2447    14.6201 H            1 NCN301   0.0000
    24 H5'2       -17.2556    97.6390    15.2916 H            1 NCN301   0.0000
    25 H4'        -16.4914    95.2857    14.1583 H            1 NCN301   0.0000
    26 H3'        -19.0990    96.1802    14.9064 H            1 NCN301   0.0000
    27 H5         -19.4143    95.0444    12.7243 H            1 NCN301   0.0000
    28 H2'        -19.6889    94.1265    15.5954 H            1 NCN301   0.0000
    29 H7         -20.2892    93.3558    13.6494 H            1 NCN301   0.0000
    30 H1'        -17.1335    92.9657    14.9689 H            1 NCN301   0.0000
    31 H9         -18.7534    94.2308    18.0397 H            1 NCN301   0.0000
    32 H10        -19.4941    92.8077    19.8607 H            1 NCN301   0.0000
    33 H11        -19.2297    90.4407    19.7177 H            1 NCN301   0.0000
    34 H12        -17.4798    90.8969    15.9775 H            1 NCN301   0.0000
@<TRIPOS>BOND
     1    1    2      ar
     2    1    3      ar
     3    1    4      ar
     4    1    5       1
     5    5    6       1
     6    6    7       1
     7    7    8       1
     8    7    9       1
     9    8   13       1
    10    9   10       1
    11    9   11       1
    12   11   12       1
    13   11   13       1
    14   13   14       1
    15   14   15      ar
    16   14   19      ar
    17   15   16      ar
    18   16   17      ar
    19   17   18      ar
    20   18   19      ar
    21   18   20       1
    22   20   21      ar
    23   20   22      ar
    24   17   33       1
    25   19   34       1
    26    6   23       1
    27    6   24       1
    28    7   25       1
    29    9   26       1
    30   10   27       1
    31   11   28       1
    32   12   29       1
    33   13   30       1
    34   15   31       1
    35   16   32       1
@<TRIPOS>SUBSTRUCTURE
     1 NCN301      1 GROUP             4 B     NCN     0 **** NCN B 301
