@<TRIPOS>MOLECULE
2b4t_AES_1_ligand
   24    24     1     0     0
SMALL
NO_CHARGES


@<TRIPOS>ATOM
     1 C3          14.5310    17.7370    13.5890 C.ar         1 AES601   0.0000
     2 C2          14.8460    16.6840    12.7300 C.ar         1 AES601   0.0000
     3 C1          14.2610    16.6210    11.4640 C.ar         1 AES601   0.0000
     4 S           14.6400    15.3100    10.3580 S.o2         1 AES601   0.0000
     5 F           14.1590    15.7070     8.9320 F            1 AES601   0.0000
     6 O1S         13.8460    14.2240    10.7700 O.2          1 AES601   0.0000
     7 O2S         16.0510    15.1940    10.3440 O.2          1 AES601   0.0000
     8 C6          13.3620    17.6030    11.0590 C.ar         1 AES601   0.0000
     9 C5          13.0490    18.6510    11.9170 C.ar         1 AES601   0.0000
    10 C4          13.6280    18.7170    13.1820 C.ar         1 AES601   0.0000
    11 C7          13.2740    19.8880    14.0950 C.3          1 AES601   0.0000
    12 C8          12.7400    19.4680    15.4590 C.3          1 AES601   0.0000
    13 N8          13.2790    20.3980    16.4610 N.4          1 AES601   1.0000
    14 H1          14.9522    17.7884    14.4945 H            1 AES601   0.0000
    15 H2          15.4895    15.9758    13.0204 H            1 AES601   0.0000
    16 H3          12.9421    17.5549    10.1527 H            1 AES601   0.0000
    17 H4          12.4064    19.3594    11.6252 H            1 AES601   0.0000
    18 H5          12.5762    20.4418    13.6406 H            1 AES601   0.0000
    19 H6          14.0972    20.4382    14.2350 H            1 AES601   0.0000
    20 H7          13.0355    18.5356    15.6672 H            1 AES601   0.0000
    21 H8          11.7408    19.5091    15.4601 H            1 AES601   0.0000
    22 H9          12.6301    20.4866    17.2167 H            1 AES601   0.0000
    23 H10         14.1487    20.0469    16.8079 H            1 AES601   0.0000
    24 H11         13.4250    21.2934    16.0403 H            1 AES601   0.0000
@<TRIPOS>BOND
     1    1    2      ar
     2    1   10      ar
     3    2    3      ar
     4    3    4       1
     5    3    8      ar
     6    4    5       1
     7    4    6       2
     8    4    7       2
     9    8    9      ar
    10    9   10      ar
    11   10   11       1
    12   11   12       1
    13   12   13       1
    14    1   14       1
    15    2   15       1
    16    8   16       1
    17    9   17       1
    18   11   18       1
    19   11   19       1
    20   12   20       1
    21   12   21       1
    22   13   22       1
    23   13   23       1
    24   13   24       1
@<TRIPOS>SUBSTRUCTURE
     1 AES601      1 GROUP             4 O     AES     0 **** AES O 601
