@<TRIPOS>MOLECULE
4wct_FAD_2_ligand
   84    89     1     0     0
SMALL
NO_CHARGES


@<TRIPOS>ATOM
     1 PA           0.1200    27.6080  -101.1700 P.3          1 FAD500   0.0000
     2 O1A         -0.3280    28.6790  -100.2170 O.co2        1 FAD500   0.0000
     3 O2A          0.6100    26.2760  -100.6630 O.co2        1 FAD500  -1.0000
     4 O5B         -1.1330    27.3430  -102.1480 O.3          1 FAD500   0.0000
     5 C5B         -1.0250    26.3570  -103.1780 C.3          1 FAD500   0.0000
     6 C4B         -2.4330    25.9670  -103.5840 C.3          1 FAD500   0.0000
     7 O4B         -2.2930    25.1600  -104.7600 O.3          1 FAD500   0.0000
     8 C3B         -3.2210    25.1640  -102.5350 C.3          1 FAD500   0.0000
     9 O3B         -4.4780    25.7770  -102.1840 O.3          1 FAD500   0.0000
    10 C2B         -3.4270    23.8150  -103.2010 C.3          1 FAD500   0.0000
    11 O2B         -4.6110    23.1240  -102.7920 O.3          1 FAD500   0.0000
    12 C1B         -3.3670    24.2080  -104.6650 C.3          1 FAD500   0.0000
    13 N9A         -3.1110    23.0760  -105.5490 N.pl3        1 FAD500   0.0000
    14 C8A         -2.2740    22.0360  -105.3410 C.2          1 FAD500   0.0000
    15 N7A         -2.3870    21.1170  -106.3500 N.2          1 FAD500   0.0000
    16 C5A         -3.2440    21.6590  -107.2520 C.ar         1 FAD500   0.0000
    17 C6A         -3.8090    21.2050  -108.5090 C.ar         1 FAD500   0.0000
    18 N6A         -3.4050    20.0120  -109.0160 N.pl3        1 FAD500   0.0000
    19 N1A         -4.7250    21.9920  -109.1220 N.ar         1 FAD500   0.0000
    20 C2A         -5.0520    23.2010  -108.6200 C.ar         1 FAD500   0.0000
    21 N3A         -4.6340    23.6270  -107.4120 N.ar         1 FAD500   0.0000
    22 C4A         -3.7430    22.9080  -106.7140 C.ar         1 FAD500   0.0000
    23 N1           6.3430    32.6130   -95.4150 N.2          1 FAD500   0.0000
    24 C2           6.4090    33.8320   -94.8400 C.2          1 FAD500   0.0000
    25 O2           6.3330    34.8600   -95.5650 O.2          1 FAD500   0.0000
    26 N3           6.4990    33.9580   -93.4950 N.pl3        1 FAD500   0.0000
    27 C4           6.6580    32.8950   -92.6880 C.2          1 FAD500   0.0000
    28 O4           6.6990    32.9630   -91.4420 O.2          1 FAD500   0.0000
    29 C4X          6.5800    31.5720   -93.2390 C.2          1 FAD500   0.0000
    30 N5           6.6920    30.4640   -92.4460 N.2          1 FAD500   0.0000
    31 C5X          6.4210    29.2630   -92.9930 C.ar         1 FAD500   0.0000
    32 C6           6.2640    28.1280   -92.1860 C.ar         1 FAD500   0.0000
    33 C7           6.0250    26.8820   -92.7260 C.ar         1 FAD500   0.0000
    34 C7M          5.9220    25.6710   -91.8300 C.3          1 FAD500   0.0000
    35 C8           5.8490    26.7700   -94.1840 C.ar         1 FAD500   0.0000
    36 C8M          5.5560    25.4720   -94.8700 C.3          1 FAD500   0.0000
    37 C9           5.9650    27.9070   -94.9900 C.ar         1 FAD500   0.0000
    38 C9A          6.2370    29.1400   -94.4380 C.ar         1 FAD500   0.0000
    39 N10          6.3030    30.2700   -95.2590 N.pl3        1 FAD500   0.0000
    40 C10          6.4330    31.5030   -94.6810 C.2          1 FAD500   0.0000
    41 C1'          6.2620    30.1540   -96.7160 C.3          1 FAD500   0.0000
    42 C2'          4.8790    30.4580   -97.2630 C.3          1 FAD500   0.0000
    43 O2'          3.9050    29.7430   -96.4950 O.3          1 FAD500   0.0000
    44 C3'          4.8210    30.0970   -98.7400 C.3          1 FAD500   0.0000
    45 O3'          5.9300    30.6980   -99.4540 O.3          1 FAD500   0.0000
    46 C4'          3.5350    30.6080   -99.4010 C.3          1 FAD500   0.0000
    47 O4'          2.3810    30.3740   -98.5930 O.3          1 FAD500   0.0000
    48 C5'          3.3880    29.9040  -100.7460 C.3          1 FAD500   0.0000
    49 O5'          2.1710    30.3590  -101.3760 O.3          1 FAD500   0.0000
    50 P            1.6520    29.5980  -102.7020 P.3          1 FAD500   0.0000
    51 O1P          0.3800    30.3070  -103.1340 O.co2        1 FAD500   0.0000
    52 O2P          2.8060    29.4250  -103.6430 O.co2        1 FAD500  -1.0000
    53 O3P          1.2740    28.1350  -102.1510 O.3          1 FAD500   0.0000
    54 H5B1        -0.5345    25.5562  -102.8342 H            1 FAD500   0.0000
    55 H5B2        -0.5356    26.7358  -103.9635 H            1 FAD500   0.0000
    56 H4B         -2.9464    26.7935  -103.8150 H            1 FAD500   0.0000
    57 H3B         -2.6633    25.0497  -101.7129 H            1 FAD500   0.0000
    58 H25         -5.0505    25.8544  -103.0002 H            1 FAD500   0.0000
    59 H2B         -2.6369    23.2372  -102.9961 H            1 FAD500   0.0000
    60 H26         -5.3698    23.3795  -103.3911 H            1 FAD500   0.0000
    61 H1B         -4.2260    24.6477  -104.9272 H            1 FAD500   0.0000
    62 H8A         -1.6573    21.9493  -104.5586 H            1 FAD500   0.0000
    63 H6A1        -3.7832    19.6825  -109.8811 H            1 FAD500   0.0000
    64 H6A2        -2.7292    19.4628  -108.5243 H            1 FAD500   0.0000
    65 H2A         -5.6291    23.8066  -109.1678 H            1 FAD500   0.0000
    66 H11          6.4455    34.8704   -93.0893 H            1 FAD500   0.0000
    67 H12          6.3269    28.2243   -91.1926 H            1 FAD500   0.0000
    68 H7M1         5.7476    24.8586   -92.3864 H            1 FAD500   0.0000
    69 H7M2         6.7790    25.5537   -91.3283 H            1 FAD500   0.0000
    70 H7M3         5.1712    25.7987   -91.1820 H            1 FAD500   0.0000
    71 H13          5.8491    27.8242   -95.9798 H            1 FAD500   0.0000
    72 H1'1         6.5153    29.2218   -96.9744 H            1 FAD500   0.0000
    73 H1'2         6.9161    30.7989   -97.1113 H            1 FAD500   0.0000
    74 H2'          4.7054    31.4381   -97.1665 H            1 FAD500   0.0000
    75 H8           3.9592    30.0293   -95.5384 H            1 FAD500   0.0000
    76 H3'          4.8677    29.1028   -98.8373 H            1 FAD500   0.0000
    77 H6           6.7079    30.0696   -99.4514 H            1 FAD500   0.0000
    78 H4'          3.6231    31.5914   -99.5599 H            1 FAD500   0.0000
    79 H4           2.6413    30.3897   -97.6276 H            1 FAD500   0.0000
    80 H5'1         3.3446    28.9149  -100.6052 H            1 FAD500   0.0000
    81 H5'2         4.1708    30.1237  -101.3282 H            1 FAD500   0.0000
    82 H8M1         6.1654    24.7516   -94.5388 H            1 FAD500   0.0000
    83 H8M2         5.6572    25.5649   -95.8605 H            1 FAD500   0.0000
    84 H110         3.5120    25.0380   -94.3510 H            1 FAD500   0.0000
@<TRIPOS>BOND
     1   36   83       1
     2   36   82       1
     3   46   78       1
     4   45   77       1
     5   44   76       1
     6   43   75       1
     7   42   74       1
     8   41   73       1
     9   41   72       1
    10   37   71       1
    11   47   79       1
    12   48   80       1
    13   48   81       1
    14   34   70       1
    15   34   69       1
    16   20   65       1
    17   34   68       1
    18   32   67       1
    19   36   84       1
    20    1    2      ar
    21    1    3      ar
    22    1    4       1
    23    1   53       1
    24    4    5       1
    25    5    6       1
    26    6    7       1
    27    6    8       1
    28    7   12       1
    29    8    9       1
    30    8   10       1
    31   10   11       1
    32   10   12       1
    33   12   13       1
    34   13   14       1
    35   13   22       1
    36   14   15       2
    37   15   16       1
    38   16   17      ar
    39   16   22      ar
    40   17   18       1
    41   17   19      ar
    42   19   20      ar
    43   20   21      ar
    44   21   22      ar
    45   23   24       1
    46   23   40       2
    47   24   25       2
    48   24   26       1
    49   26   27       1
    50   27   28       2
    51   27   29       1
    52   29   30       2
    53   29   40       1
    54   30   31       1
    55   31   32      ar
    56   31   38      ar
    57   32   33      ar
    58   33   34       1
    59   33   35      ar
    60   35   36       1
    61   35   37      ar
    62   37   38      ar
    63   38   39       1
    64   39   40       1
    65   39   41       1
    66   41   42       1
    67   42   43       1
    68   42   44       1
    69   44   45       1
    70   44   46       1
    71   46   47       1
    72   46   48       1
    73   48   49       1
    74   49   50       1
    75   50   51      ar
    76   50   52      ar
    77   50   53       1
    78   26   66       1
    79    5   54       1
    80    5   55       1
    81    6   56       1
    82    8   57       1
    83    9   58       1
    84   10   59       1
    85   11   60       1
    86   12   61       1
    87   14   62       1
    88   18   63       1
    89   18   64       1
@<TRIPOS>SUBSTRUCTURE
     1 FAD500      1 GROUP             4 B     FAD     0 **** FAD B 500
