@<TRIPOS>MOLECULE
4h0n_SAH_3_ligand
   46    48     1     0     0
SMALL
NO_CHARGES


@<TRIPOS>ATOM
     1 N          150.8880   108.6030   165.2600 N.4          1 SAH401   1.0000
     2 CA         149.6790   108.6200   164.4430 C.3          1 SAH401   0.0000
     3 CB         149.9460   107.9860   163.0810 C.3          1 SAH401   0.0000
     4 CG         151.2260   107.1690   162.9870 C.3          1 SAH401   0.0000
     5 SD         151.0570   105.7490   161.8790 S.3          1 SAH401   0.0000
     6 C          148.5020   107.9400   165.1360 C.2          1 SAH401   0.0000
     7 O          148.0850   106.8520   164.7380 O.co2        1 SAH401   0.0000
     8 OXT        147.9400   108.4580   166.1040 O.co2        1 SAH401  -1.0000
     9 C5'        150.4220   106.7880   160.5350 C.3          1 SAH401   0.0000
    10 C4'        149.2980   106.1390   159.7310 C.3          1 SAH401   0.0000
    11 O4'        148.9890   106.9180   158.5870 O.3          1 SAH401   0.0000
    12 C3'        149.6640   104.7560   159.2060 C.3          1 SAH401   0.0000
    13 O3'        149.1210   103.7480   160.0260 O.3          1 SAH401   0.0000
    14 C2'        149.0630   104.6880   157.8130 C.3          1 SAH401   0.0000
    15 O2'        148.0020   103.7600   157.7740 O.3          1 SAH401   0.0000
    16 C1'        148.5390   106.0880   157.5250 C.3          1 SAH401   0.0000
    17 N9         149.0650   106.5410   156.2180 N.pl3        1 SAH401   0.0000
    18 C8         150.1980   106.0740   155.6000 C.2          1 SAH401   0.0000
    19 N7         150.3500   106.7210   154.4220 N.2          1 SAH401   0.0000
    20 C5         149.3300   107.5950   154.2750 C.ar         1 SAH401   0.0000
    21 C6         149.0100   108.4960   153.2650 C.ar         1 SAH401   0.0000
    22 N6         149.7880   108.6010   152.1910 N.pl3        1 SAH401   0.0000
    23 N1         147.8790   109.2790   153.3840 N.ar         1 SAH401   0.0000
    24 C2         147.0800   109.1620   154.5050 C.ar         1 SAH401   0.0000
    25 N3         147.4050   108.2640   155.5030 N.ar         1 SAH401   0.0000
    26 C4         148.5130   107.4910   155.3940 C.ar         1 SAH401   0.0000
    27 H1         150.6963   109.0214   166.1478 H            1 SAH401   0.0000
    28 H2         151.1863   107.6580   165.3943 H            1 SAH401   0.0000
    29 HA         149.4298   109.5762   164.2893 H            1 SAH401   0.0000
    30 HB1        149.9964   108.7192   162.4029 H            1 SAH401   0.0000
    31 HB2        149.1778   107.3836   162.8641 H            1 SAH401   0.0000
    32 HG1        151.4633   106.8375   163.9001 H            1 SAH401   0.0000
    33 HG2        151.9585   107.7577   162.6453 H            1 SAH401   0.0000
    34 H5'1       151.1768   106.9935   159.9121 H            1 SAH401   0.0000
    35 H5'2       150.0756   107.6384   160.9310 H            1 SAH401   0.0000
    36 H4'        148.4837   106.0657   160.3068 H            1 SAH401   0.0000
    37 H3'        150.6581   104.6597   159.1561 H            1 SAH401   0.0000
    38 H12        149.8602   103.1864   160.3976 H            1 SAH401   0.0000
    39 H2'        149.7649   104.4381   157.1460 H            1 SAH401   0.0000
    40 H14        147.8826   103.3520   158.6791 H            1 SAH401   0.0000
    41 H1'        147.5393   106.0779   157.5030 H            1 SAH401   0.0000
    42 H16        150.8105   105.3709   155.9613 H            1 SAH401   0.0000
    43 H17        149.5552   109.2498   151.4665 H            1 SAH401   0.0000
    44 H18        150.6056   108.0312   152.1082 H            1 SAH401   0.0000
    45 H19        146.2621   109.7304   154.5944 H            1 SAH401   0.0000
    46 H20        151.6099   109.1179   164.7978 H            1 SAH401   0.0000
@<TRIPOS>BOND
     1    1    2       1
     2    2    3       1
     3    2    6       1
     4    3    4       1
     5    4    5       1
     6    5    9       1
     7    6    7      ar
     8    6    8      ar
     9    9   10       1
    10   10   11       1
    11   10   12       1
    12   11   16       1
    13   12   13       1
    14   12   14       1
    15   14   15       1
    16   14   16       1
    17   16   17       1
    18   17   18       1
    19   17   26       1
    20   18   19       2
    21   19   20       1
    22   20   21      ar
    23   20   26      ar
    24   21   22       1
    25   21   23      ar
    26   23   24      ar
    27   24   25      ar
    28   25   26      ar
    29    1   27       1
    30    1   28       1
    31    2   29       1
    32    3   30       1
    33    3   31       1
    34    4   32       1
    35    4   33       1
    36    1   46       1
    37    9   34       1
    38    9   35       1
    39   10   36       1
    40   12   37       1
    41   13   38       1
    42   14   39       1
    43   15   40       1
    44   16   41       1
    45   18   42       1
    46   22   43       1
    47   22   44       1
    48   24   45       1
@<TRIPOS>SUBSTRUCTURE
     1 SAH401      1 GROUP             4 C     SAH     0 **** SAH C 401
