@<TRIPOS>MOLECULE
4lzw_THM_2_ligand
   31    32     1     0     0
SMALL
NO_CHARGES


@<TRIPOS>ATOM
     1 O5'         -0.7270   -10.8870    60.9340 O.3          1 THM301   0.0000
     2 C5'         -0.7620    -9.9280    61.9040 C.3          1 THM301   0.0000
     3 C4'          0.1240    -8.7830    61.8180 C.3          1 THM301   0.0000
     4 O4'          1.4650    -9.1730    61.9340 O.3          1 THM301   0.0000
     5 C3'          0.0100    -8.1240    60.4870 C.3          1 THM301   0.0000
     6 O3'          0.3390    -6.8330    60.6010 O.3          1 THM301   0.0000
     7 C2'          1.0320    -8.7660    59.6770 C.3          1 THM301   0.0000
     8 C1'          2.0940    -9.1600    60.6330 C.3          1 THM301   0.0000
     9 N1           2.5960   -10.4760    60.3300 N.pl3        1 THM301   0.0000
    10 C2           3.2770   -10.6670    59.1540 C.2          1 THM301   0.0000
    11 O2           3.4460    -9.7410    58.4190 O.2          1 THM301   0.0000
    12 N3           3.7290   -11.8830    58.8280 N.pl3        1 THM301   0.0000
    13 C4           3.5410   -12.9380    59.6350 C.2          1 THM301   0.0000
    14 O4           4.0150   -14.1200    59.2730 O.2          1 THM301   0.0000
    15 C5           2.8490   -12.7820    60.8460 C.2          1 THM301   0.0000
    16 C5M          2.6300   -13.9800    61.7680 C.3          1 THM301   0.0000
    17 C6           2.3720   -11.4880    61.1680 C.2          1 THM301   0.0000
    18 H5'         -1.6246   -10.9532    60.4981 H            1 THM301   0.0000
    19 H5'1        -0.5611   -10.3851    62.7704 H            1 THM301   0.0000
    20 H5'2        -1.6958    -9.5707    61.9243 H            1 THM301   0.0000
    21 H4'         -0.1004    -8.1277    62.5393 H            1 THM301   0.0000
    22 H3'         -0.9018    -8.2403    60.0932 H            1 THM301   0.0000
    23 H6           0.2628    -6.3895    59.7080 H            1 THM301   0.0000
    24 H2'1         1.3920    -8.1281    58.9962 H            1 THM301   0.0000
    25 H2'2         0.6593    -9.5710    59.2154 H            1 THM301   0.0000
    26 H1'          2.8392    -8.4934    60.6159 H            1 THM301   0.0000
    27 H10          4.2174   -12.0083    57.9644 H            1 THM301   0.0000
    28 H5M1         2.1228   -13.6882    62.5789 H            1 THM301   0.0000
    29 H5M2         2.1086   -14.6825    61.2836 H            1 THM301   0.0000
    30 H5M3         3.5152   -14.3536    62.0451 H            1 THM301   0.0000
    31 H14          1.8700   -11.3344    62.0191 H            1 THM301   0.0000
@<TRIPOS>BOND
     1    1    2       1
     2    2    3       1
     3    3    4       1
     4    3    5       1
     5    4    8       1
     6    5    6       1
     7    5    7       1
     8    7    8       1
     9    8    9       1
    10    9   10       1
    11    9   17       1
    12   10   11       2
    13   10   12       1
    14   12   13       1
    15   13   14       2
    16   13   15       1
    17   15   16       1
    18   15   17       2
    19    1   18       1
    20    2   19       1
    21    2   20       1
    22    3   21       1
    23    5   22       1
    24    6   23       1
    25    7   24       1
    26    7   25       1
    27    8   26       1
    28   12   27       1
    29   16   28       1
    30   16   29       1
    31   16   30       1
    32   17   31       1
@<TRIPOS>SUBSTRUCTURE
     1 THM301      1 GROUP             4 B     THM     0 **** THM B 301
