@<TRIPOS>MOLECULE
4ewn_0VR_1_ligand
   38    38     1     0     0
SMALL
NO_CHARGES


@<TRIPOS>ATOM
     1 P           19.1340    17.5550    24.7670 P.3          1 0VR400   0.0000
     2 O1P         20.4820    17.8840    24.1710 O.co2        1 0VR400   0.0000
     3 O2P         18.8900    18.3490    26.0420 O.co2        1 0VR400  -1.0000
     4 O3P         19.1870    16.0720    25.0800 O.co2        1 0VR400  -1.0000
     5 O5'         17.9520    17.9200    23.7930 O.3          1 0VR400   0.0000
     6 C5'         17.2250    16.9320    23.1120 C.3          1 0VR400   0.0000
     7 C4'         16.1530    17.5690    22.2300 C.3          1 0VR400   0.0000
     8 O4'         15.2060    18.1580    23.0380 O.3          1 0VR400   0.0000
     9 C3'         16.7250    18.5640    21.2290 C.3          1 0VR400   0.0000
    10 O3'         17.7670    17.9370    20.5770 O.3          1 0VR400   0.0000
    11 C2'         15.7570    19.0360    20.1610 C.3          1 0VR400   0.0000
    12 O2'         14.4450    18.7470    20.4450 O.3          1 0VR400   0.0000
    13 C1'         15.8430    20.5210    19.9400 C.3          1 0VR400   0.0000
    14 NH          14.6480    20.9570    19.2050 N.pl3        1 0VR400   0.0000
    15 C1          12.8870    22.3910    18.9560 C.ar         1 0VR400   0.0000
    16 C2          13.8640    22.1050    19.6400 C.ar         1 0VR400   0.0000
    17 C3          14.3730    22.6680    20.7710 C.ar         1 0VR400   0.0000
    18 C4          13.4660    23.9150    21.1930 C.ar         1 0VR400   0.0000
    19 C5          12.2630    24.1340    20.1990 C.ar         1 0VR400   0.0000
    20 C6          12.1340    23.2930    19.1620 C.ar         1 0VR400   0.0000
    21 C7          12.5500    21.5840    17.7420 C.2          1 0VR400   0.0000
    22 O71         12.5210    20.3450    17.9620 O.co2        1 0VR400   0.0000
    23 O72         12.3400    22.3070    16.7350 O.co2        1 0VR400  -1.0000
    24 H5'1        16.7871    16.3280    23.7779 H            1 0VR400   0.0000
    25 H5'2        17.8490    16.4002    22.5394 H            1 0VR400   0.0000
    26 H4'         15.7053    16.8382    21.7148 H            1 0VR400   0.0000
    27 H4          14.4871    17.4950    23.2469 H            1 0VR400   0.0000
    28 H3'         17.0791    19.3580    21.7232 H            1 0VR400   0.0000
    29 H6          17.4247    17.1235    20.1068 H            1 0VR400   0.0000
    30 H2'         15.9959    18.5808    19.3033 H            1 0VR400   0.0000
    31 H8          14.3125    18.7388    21.4361 H            1 0VR400   0.0000
    32 H1'1        16.6622    20.7353    19.4081 H            1 0VR400   0.0000
    33 H1'2        15.8858    20.9907    20.8218 H            1 0VR400   0.0000
    34 HH          14.3665    20.4543    18.3876 H            1 0VR400   0.0000
    35 H12         15.1857    22.3513    21.2601 H            1 0VR400   0.0000
    36 H13         13.6414    24.4884    21.9933 H            1 0VR400   0.0000
    37 H14         11.6125    24.8807    20.3377 H            1 0VR400   0.0000
    38 H15         11.3699    23.4287    18.5313 H            1 0VR400   0.0000
@<TRIPOS>BOND
     1    1    2      ar
     2    1    3      ar
     3    1    4      ar
     4    1    5       1
     5    5    6       1
     6    6    7       1
     7    7    8       1
     8    7    9       1
     9    9   10       1
    10    9   11       1
    11   11   12       1
    12   11   13       1
    13   13   14       1
    14   14   16       1
    15   15   16      ar
    16   15   20      ar
    17   15   21       1
    18   16   17      ar
    19   17   18      ar
    20   18   19      ar
    21   19   20      ar
    22   21   22      ar
    23   21   23      ar
    24   19   37       1
    25   20   38       1
    26    6   24       1
    27    6   25       1
    28    7   26       1
    29    8   27       1
    30    9   28       1
    31   10   29       1
    32   11   30       1
    33   12   31       1
    34   13   32       1
    35   13   33       1
    36   14   34       1
    37   17   35       1
    38   18   36       1
@<TRIPOS>SUBSTRUCTURE
     1 0VR400      1 GROUP             4 D     0VR     0 **** 0VR D 400
