@<TRIPOS>MOLECULE
5d3q_GDP_1_ligand
   40    42     1     0     0
SMALL
NO_CHARGES


@<TRIPOS>ATOM
     1 PB          11.0040    20.3910    60.2000 P.3          1 GDP801   0.0000
     2 O1B          9.6210    20.1810    59.6950 O.co2        1 GDP801   0.0000
     3 O2B         11.0020    20.5930    61.6810 O.co2        1 GDP801  -1.0000
     4 O3B         11.8940    19.2390    59.7330 O.co2        1 GDP801  -1.0000
     5 O3A         11.5140    21.7300    59.4330 O.3          1 GDP801   0.0000
     6 PA          12.3000    22.9760    60.1050 P.3          1 GDP801   0.0000
     7 O1A         13.6130    22.5500    60.7230 O.co2        1 GDP801   0.0000
     8 O2A         11.3410    23.8310    60.9360 O.co2        1 GDP801  -1.0000
     9 O5'         12.5130    23.7310    58.7290 O.3          1 GDP801   0.0000
    10 C5'         13.3170    23.2130    57.6950 C.3          1 GDP801   0.0000
    11 C4'         14.1140    24.2410    56.9560 C.3          1 GDP801   0.0000
    12 O4'         13.1500    25.1320    56.3500 O.3          1 GDP801   0.0000
    13 C3'         15.0770    25.0770    57.7920 C.3          1 GDP801   0.0000
    14 O3'         16.2120    25.2420    56.9360 O.3          1 GDP801   0.0000
    15 C2'         14.2510    26.3140    58.0580 C.3          1 GDP801   0.0000
    16 O2'         15.1300    27.3980    58.2800 O.3          1 GDP801   0.0000
    17 C1'         13.4920    26.4780    56.7730 C.3          1 GDP801   0.0000
    18 N9          12.1840    27.0900    56.9760 N.pl3        1 GDP801   0.0000
    19 C8          11.1960    26.6420    57.7860 C.2          1 GDP801   0.0000
    20 N7          10.1200    27.4410    57.6440 N.2          1 GDP801   0.0000
    21 C5          10.4130    28.3970    56.7460 C.2          1 GDP801   0.0000
    22 C6           9.7240    29.5660    56.1660 C.2          1 GDP801   0.0000
    23 O6           8.5290    29.8420    56.4370 O.2          1 GDP801   0.0000
    24 N1          10.4220    30.2790    55.2640 N.pl3        1 GDP801   0.0000
    25 C2          11.6980    30.0340    54.9130 C.2          1 GDP801   0.0000
    26 N2          12.3150    30.8120    54.0210 N.pl3        1 GDP801   0.0000
    27 N3          12.3740    28.9540    55.3890 N.2          1 GDP801   0.0000
    28 C4          11.7610    28.1660    56.2910 C.2          1 GDP801   0.0000
    29 H5'1        12.7219    22.7483    57.0394 H            1 GDP801   0.0000
    30 H5'2        13.9527    22.5525    58.0945 H            1 GDP801   0.0000
    31 H4'         14.6306    23.7860    56.2307 H            1 GDP801   0.0000
    32 H3'         15.3236    24.6113    58.6419 H            1 GDP801   0.0000
    33 H5          17.0394    25.3240    57.4916 H            1 GDP801   0.0000
    34 H2'         13.6329    26.1806    58.8327 H            1 GDP801   0.0000
    35 H7          14.5991    28.2266    58.4580 H            1 GDP801   0.0000
    36 H1'         14.0280    26.9623    56.0815 H            1 GDP801   0.0000
    37 H9          11.2550    25.8479    58.3909 H            1 GDP801   0.0000
    38 H10          9.9590    31.0473    54.8219 H            1 GDP801   0.0000
    39 H11         13.2632    30.6241    53.7648 H            1 GDP801   0.0000
    40 H12         11.8290    31.5827    53.6089 H            1 GDP801   0.0000
@<TRIPOS>BOND
     1    1    2      ar
     2    1    3      ar
     3    1    4      ar
     4    1    5       1
     5    5    6       1
     6    6    7      ar
     7    6    8      ar
     8    6    9       1
     9    9   10       1
    10   10   11       1
    11   11   12       1
    12   11   13       1
    13   12   17       1
    14   13   14       1
    15   13   15       1
    16   15   16       1
    17   15   17       1
    18   17   18       1
    19   18   19       1
    20   18   28       1
    21   19   20       2
    22   20   21       1
    23   21   22       1
    24   21   28       2
    25   22   23       2
    26   22   24       1
    27   24   25       1
    28   25   26       1
    29   25   27       2
    30   27   28       1
    31   26   40       1
    32   26   39       1
    33   24   38       1
    34   10   29       1
    35   10   30       1
    36   11   31       1
    37   13   32       1
    38   14   33       1
    39   15   34       1
    40   16   35       1
    41   17   36       1
    42   19   37       1
@<TRIPOS>SUBSTRUCTURE
     1 GDP801      1 GROUP             4 A     GDP     0 **** GDP A 801
