@<TRIPOS>MOLECULE
4f6r_GDP_2_ligand
   40    42     1     0     0
SMALL
NO_CHARGES


@<TRIPOS>ATOM
     1 PB          22.0240    18.2400    18.6980 P.3          1 GDP501   0.0000
     2 O1B         22.4130    17.5590    19.9830 O.co2        1 GDP501   0.0000
     3 O2B         20.7960    17.5110    18.0420 O.co2        1 GDP501  -1.0000
     4 O3B         21.7540    19.7110    18.9370 O.co2        1 GDP501  -1.0000
     5 O3A         23.2140    18.1820    17.6560 O.3          1 GDP501   0.0000
     6 PA          24.1080    16.9460    17.2390 P.3          1 GDP501   0.0000
     7 O1A         23.7550    16.5870    15.8470 O.co2        1 GDP501   0.0000
     8 O2A         23.8800    15.8320    18.2870 O.co2        1 GDP501  -1.0000
     9 O5'         25.5700    17.5770    17.3710 O.3          1 GDP501   0.0000
    10 C5'         26.5150    17.7280    16.3110 C.3          1 GDP501   0.0000
    11 C4'         27.7250    16.9240    16.7100 C.3          1 GDP501   0.0000
    12 O4'         27.3720    15.5170    16.7960 O.3          1 GDP501   0.0000
    13 C3'         28.8560    16.9880    15.6880 C.3          1 GDP501   0.0000
    14 O3'         30.1330    16.7820    16.2900 O.3          1 GDP501   0.0000
    15 C2'         28.4750    15.8540    14.7450 C.3          1 GDP501   0.0000
    16 O2'         29.6020    15.4220    14.0030 O.3          1 GDP501   0.0000
    17 C1'         28.0250    14.8030    15.7620 C.3          1 GDP501   0.0000
    18 N9          27.1050    13.7720    15.2480 N.pl3        1 GDP501   0.0000
    19 C8          25.8200    13.9390    14.7990 C.2          1 GDP501   0.0000
    20 N7          25.2210    12.8090    14.5200 N.2          1 GDP501   0.0000
    21 C5          26.1660    11.8350    14.7960 C.2          1 GDP501   0.0000
    22 C6          26.1150    10.3770    14.6970 C.2          1 GDP501   0.0000
    23 O6          25.1710     9.6800    14.3280 O.2          1 GDP501   0.0000
    24 N1          27.3040     9.7840    15.0720 N.pl3        1 GDP501   0.0000
    25 C2          28.4210    10.4550    15.4960 C.2          1 GDP501   0.0000
    26 N2          29.4730     9.7160    15.8490 N.pl3        1 GDP501   0.0000
    27 N3          28.4920    11.7840    15.5880 N.2          1 GDP501   0.0000
    28 C4          27.3350    12.4090    15.2330 C.2          1 GDP501   0.0000
    29 H5'1        26.7600    18.6911    16.1994 H            1 GDP501   0.0000
    30 H5'2        26.1341    17.3795    15.4546 H            1 GDP501   0.0000
    31 H4'         28.0585    17.2400    17.5982 H            1 GDP501   0.0000
    32 H3'         28.8375    17.8629    15.2041 H            1 GDP501   0.0000
    33 H5          30.5117    17.6617    16.5777 H            1 GDP501   0.0000
    34 H2'         27.7234    16.1205    14.1416 H            1 GDP501   0.0000
    35 H7          29.3032    15.0786    13.1126 H            1 GDP501   0.0000
    36 H1'         28.8339    14.3537    16.1411 H            1 GDP501   0.0000
    37 H9          25.3847    14.8333    14.6953 H            1 GDP501   0.0000
    38 H10         27.3540     8.7861    15.0310 H            1 GDP501   0.0000
    39 H11         30.3118    10.1591    16.1653 H            1 GDP501   0.0000
    40 H12         29.4233     8.7186    15.7974 H            1 GDP501   0.0000
@<TRIPOS>BOND
     1    1    2      ar
     2    1    3      ar
     3    1    4      ar
     4    1    5       1
     5    5    6       1
     6    6    7      ar
     7    6    8      ar
     8    6    9       1
     9    9   10       1
    10   10   11       1
    11   11   12       1
    12   11   13       1
    13   12   17       1
    14   13   14       1
    15   13   15       1
    16   15   16       1
    17   15   17       1
    18   17   18       1
    19   18   19       1
    20   18   28       1
    21   19   20       2
    22   20   21       1
    23   21   22       1
    24   21   28       2
    25   22   23       2
    26   22   24       1
    27   24   25       1
    28   25   26       1
    29   25   27       2
    30   27   28       1
    31   26   40       1
    32   26   39       1
    33   24   38       1
    34   10   29       1
    35   10   30       1
    36   11   31       1
    37   13   32       1
    38   14   33       1
    39   15   34       1
    40   16   35       1
    41   17   36       1
    42   19   37       1
@<TRIPOS>SUBSTRUCTURE
     1 GDP501      1 GROUP             4 B     GDP     0 **** GDP B 501
