@<TRIPOS>MOLECULE
3rnm_FAD_1_ligand
   84    89     1     0     0
SMALL
NO_CHARGES


@<TRIPOS>ATOM
     1 PA         -22.9280     0.1510    41.4720 P.3          1 FAD480   0.0000
     2 O1A        -21.5900    -0.2090    40.8880 O.co2        1 FAD480   0.0000
     3 O2A        -24.0570    -0.3790    40.6100 O.co2        1 FAD480  -1.0000
     4 O5B        -23.0670    -0.4530    42.9410 O.3          1 FAD480   0.0000
     5 C5B        -24.3240    -0.5130    43.5600 C.3          1 FAD480   0.0000
     6 C4B        -24.1630    -1.5500    44.6480 C.3          1 FAD480   0.0000
     7 O4B        -25.1220    -1.3310    45.6550 O.3          1 FAD480   0.0000
     8 C3B        -24.3910    -2.9530    44.1280 C.3          1 FAD480   0.0000
     9 O3B        -23.3510    -3.7270    44.6670 O.3          1 FAD480   0.0000
    10 C2B        -25.7310    -3.3540    44.7150 C.3          1 FAD480   0.0000
    11 O2B        -25.8190    -4.7280    45.0050 O.3          1 FAD480   0.0000
    12 C1B        -25.7290    -2.5490    45.9950 C.3          1 FAD480   0.0000
    13 N9A        -27.0590    -2.2080    46.4810 N.pl3        1 FAD480   0.0000
    14 C8A        -28.0510    -1.5620    45.7950 C.2          1 FAD480   0.0000
    15 N7A        -29.1040    -1.4350    46.6230 N.2          1 FAD480   0.0000
    16 C5A        -28.7830    -1.9750    47.8240 C.ar         1 FAD480   0.0000
    17 C6A        -29.4760    -2.1120    49.0260 C.ar         1 FAD480   0.0000
    18 N6A        -30.7090    -1.6470    49.1430 N.pl3        1 FAD480   0.0000
    19 N1A        -28.8720    -2.7170    50.1030 N.ar         1 FAD480   0.0000
    20 C2A        -27.5860    -3.1960    49.9850 C.ar         1 FAD480   0.0000
    21 N3A        -26.9010    -3.0580    48.7930 N.ar         1 FAD480   0.0000
    22 C4A        -27.4920    -2.4540    47.7420 C.ar         1 FAD480   0.0000
    23 N1         -17.6860     2.5420    33.9630 N.2          1 FAD480   0.0000
    24 C2         -16.4490     3.1030    33.6910 C.2          1 FAD480   0.0000
    25 O2         -16.1300     4.1570    34.2290 O.2          1 FAD480   0.0000
    26 N3         -15.5630     2.4940    32.8210 N.pl3        1 FAD480   0.0000
    27 C4         -15.9190     1.3080    32.2080 C.2          1 FAD480   0.0000
    28 O4         -15.1300     0.7580    31.4340 O.2          1 FAD480   0.0000
    29 C4X        -17.1680     0.7430    32.4710 C.2          1 FAD480   0.0000
    30 N5         -17.5280    -0.4350    31.8640 N.2          1 FAD480   0.0000
    31 C5X        -18.7480    -1.0190    32.1240 C.ar         1 FAD480   0.0000
    32 C6         -19.1060    -2.2150    31.4990 C.ar         1 FAD480   0.0000
    33 C7         -20.3420    -2.8050    31.7810 C.ar         1 FAD480   0.0000
    34 C7M        -20.7330    -4.1000    31.1210 C.3          1 FAD480   0.0000
    35 C8         -21.2050    -2.1770    32.6820 C.ar         1 FAD480   0.0000
    36 C8M        -22.5460    -2.7550    33.0230 C.3          1 FAD480   0.0000
    37 C9         -20.8340    -0.9810    33.2830 C.ar         1 FAD480   0.0000
    38 C9A        -19.6120    -0.3950    33.0140 C.ar         1 FAD480   0.0000
    39 N10        -19.2590     0.7990    33.6210 N.pl3        1 FAD480   0.0000
    40 C10        -18.0380     1.3600    33.3520 C.2          1 FAD480   0.0000
    41 C1'        -20.2560     1.6230    34.3750 C.3          1 FAD480   0.0000
    42 C2'        -19.9710     1.4300    35.8500 C.3          1 FAD480   0.0000
    43 O2'        -20.0240     0.0510    36.1070 O.3          1 FAD480   0.0000
    44 C3'        -20.9390     2.1750    36.7660 C.3          1 FAD480   0.0000
    45 O3'        -20.8410     3.5370    36.4570 O.3          1 FAD480   0.0000
    46 C4'        -20.5230     2.0030    38.2270 C.3          1 FAD480   0.0000
    47 O4'        -20.6790     0.6530    38.6300 O.3          1 FAD480   0.0000
    48 C5'        -21.3140     2.9270    39.1560 C.3          1 FAD480   0.0000
    49 O5'        -21.0390     2.5940    40.4910 O.3          1 FAD480   0.0000
    50 P          -22.0170     2.8530    41.7500 P.3          1 FAD480   0.0000
    51 O1P        -21.1510     2.6700    42.9780 O.co2        1 FAD480   0.0000
    52 O2P        -22.6730     4.2010    41.7120 O.co2        1 FAD480  -1.0000
    53 O3P        -23.1520     1.7290    41.6620 O.3          1 FAD480   0.0000
    54 H5B1       -25.0267    -0.7934    42.9061 H            1 FAD480   0.0000
    55 H5B2       -24.5678     0.3744    43.9512 H            1 FAD480   0.0000
    56 H4B        -23.2454    -1.4837    45.0400 H            1 FAD480   0.0000
    57 H3B        -24.3982    -2.9832    43.1285 H            1 FAD480   0.0000
    58 H5         -23.3955    -3.6961    45.6655 H            1 FAD480   0.0000
    59 H2B        -26.4802    -3.0686    44.1173 H            1 FAD480   0.0000
    60 H7         -25.1124    -4.9746    45.6682 H            1 FAD480   0.0000
    61 H1B        -25.2040    -3.0180    46.7052 H            1 FAD480   0.0000
    62 H8A        -28.0023    -1.2419    44.8489 H            1 FAD480   0.0000
    63 H6A1       -31.2015    -1.7479    50.0074 H            1 FAD480   0.0000
    64 H6A2       -31.1485    -1.1946    48.3670 H            1 FAD480   0.0000
    65 H2A        -27.1472    -3.6446    50.7636 H            1 FAD480   0.0000
    66 H13        -14.6718     2.9087    32.6371 H            1 FAD480   0.0000
    67 H14        -18.4799    -2.6488    30.8511 H            1 FAD480   0.0000
    68 H7M1       -21.6416    -4.3738    31.4364 H            1 FAD480   0.0000
    69 H7M2       -20.7476    -3.9773    30.1287 H            1 FAD480   0.0000
    70 H7M3       -20.0696    -4.8093    31.3595 H            1 FAD480   0.0000
    71 H8M1       -23.0076    -2.1604    33.6813 H            1 FAD480   0.0000
    72 H8M2       -23.0992    -2.8261    32.1930 H            1 FAD480   0.0000
    73 H8M3       -22.4255    -3.6639    33.4222 H            1 FAD480   0.0000
    74 H21        -21.4622    -0.5363    33.9215 H            1 FAD480   0.0000
    75 H1'1       -21.1841     1.3174    34.1624 H            1 FAD480   0.0000
    76 H1'2       -20.1584     2.5877    34.1304 H            1 FAD480   0.0000
    77 H2'        -19.0435     1.7526    36.0389 H            1 FAD480   0.0000
    78 H25        -20.3268    -0.1013    37.0478 H            1 FAD480   0.0000
    79 H3'        -21.8744     1.8500    36.6268 H            1 FAD480   0.0000
    80 H27        -21.7192     3.9824    36.6314 H            1 FAD480   0.0000
    81 H4'        -19.5546     2.2402    38.3041 H            1 FAD480   0.0000
    82 H29        -21.3246     0.6051    39.3922 H            1 FAD480   0.0000
    83 H5'1       -22.2924     2.8186    38.9801 H            1 FAD480   0.0000
    84 H5'2       -21.0482     3.8762    38.9876 H            1 FAD480   0.0000
@<TRIPOS>BOND
     1    1    2      ar
     2    1    3      ar
     3    1    4       1
     4    1   53       1
     5    4    5       1
     6    5    6       1
     7    6    7       1
     8    6    8       1
     9    7   12       1
    10    8    9       1
    11    8   10       1
    12   10   11       1
    13   10   12       1
    14   12   13       1
    15   13   14       1
    16   13   22       1
    17   14   15       2
    18   15   16       1
    19   16   17      ar
    20   16   22      ar
    21   17   18       1
    22   17   19      ar
    23   19   20      ar
    24   20   21      ar
    25   21   22      ar
    26   23   24       1
    27   23   40       2
    28   24   25       2
    29   24   26       1
    30   26   27       1
    31   27   28       2
    32   27   29       1
    33   29   30       2
    34   29   40       1
    35   30   31       1
    36   31   32      ar
    37   31   38      ar
    38   32   33      ar
    39   33   34       1
    40   33   35      ar
    41   35   36       1
    42   35   37      ar
    43   37   38      ar
    44   38   39       1
    45   39   40       1
    46   39   41       1
    47   41   42       1
    48   42   43       1
    49   42   44       1
    50   44   45       1
    51   44   46       1
    52   46   47       1
    53   46   48       1
    54   48   49       1
    55   49   50       1
    56   50   51      ar
    57   50   52      ar
    58   50   53       1
    59   48   84       1
    60    5   54       1
    61    5   55       1
    62    6   56       1
    63    8   57       1
    64    9   58       1
    65   10   59       1
    66   11   60       1
    67   12   61       1
    68   14   62       1
    69   18   63       1
    70   18   64       1
    71   20   65       1
    72   26   66       1
    73   32   67       1
    74   34   68       1
    75   34   69       1
    76   34   70       1
    77   36   71       1
    78   36   72       1
    79   36   73       1
    80   37   74       1
    81   41   75       1
    82   41   76       1
    83   42   77       1
    84   43   78       1
    85   44   79       1
    86   45   80       1
    87   46   81       1
    88   47   82       1
    89   48   83       1
@<TRIPOS>SUBSTRUCTURE
     1 FAD480      1 GROUP             4 A     FAD     0 **** FAD A 480
