@<TRIPOS>MOLECULE
3rab_GNP_1_ligand
   45    47     1     0     0
SMALL
NO_CHARGES


@<TRIPOS>ATOM
     1 PG           7.1420    -6.9470     5.0830 P.3          1 GNP200   0.0000
     2 O1G          5.8790    -7.6550     4.7900 O.co2        1 GNP200   0.0000
     3 O2G          8.2180    -7.2540     4.1270 O.co2        1 GNP200  -1.0000
     4 O3G          7.5510    -6.9700     6.5030 O.co2        1 GNP200  -1.0000
     5 N3B          6.7430    -5.3660     4.7760 N.3          1 GNP200   0.0000
     6 PB           7.4570    -3.9050     5.0300 P.3          1 GNP200   0.0000
     7 O1B          7.2760    -3.5430     6.4540 O.co2        1 GNP200   0.0000
     8 O2B          8.7990    -3.9180     4.4580 O.co2        1 GNP200  -1.0000
     9 O3A          6.6260    -2.8200     4.1600 O.3          1 GNP200   0.0000
    10 PA           6.9200    -2.2530     2.6820 P.3          1 GNP200   0.0000
    11 O1A          8.1240    -1.3760     2.6820 O.co2        1 GNP200   0.0000
    12 O2A          6.8080    -3.3580     1.7100 O.co2        1 GNP200  -1.0000
    13 O5'          5.6250    -1.3320     2.5700 O.3          1 GNP200   0.0000
    14 C5'          4.2910    -1.8210     2.6160 C.3          1 GNP200   0.0000
    15 C4'          3.4010    -0.8140     1.9280 C.3          1 GNP200   0.0000
    16 O4'          3.4570     0.4500     2.6050 O.3          1 GNP200   0.0000
    17 C3'          3.8730    -0.5410     0.5180 C.3          1 GNP200   0.0000
    18 O3'          2.7000    -0.4750    -0.2780 O.3          1 GNP200   0.0000
    19 C2'          4.6090     0.8070     0.5910 C.3          1 GNP200   0.0000
    20 O2'          4.3970     1.6080    -0.5680 O.3          1 GNP200   0.0000
    21 C1'          3.9150     1.5050     1.7450 C.3          1 GNP200   0.0000
    22 N9           4.7420     2.5120     2.4530 N.pl3        1 GNP200   0.0000
    23 C8           5.9690     2.3530     3.0390 C.2          1 GNP200   0.0000
    24 N7           6.4190     3.4190     3.6400 N.2          1 GNP200   0.0000
    25 C5           5.4220     4.3700     3.4380 C.2          1 GNP200   0.0000
    26 C6           5.3460     5.7300     3.8590 C.2          1 GNP200   0.0000
    27 O6           6.1630     6.3860     4.5040 O.2          1 GNP200   0.0000
    28 N1           4.1630     6.3340     3.4460 N.pl3        1 GNP200   0.0000
    29 C2           3.1650     5.7150     2.7220 C.2          1 GNP200   0.0000
    30 N2           2.1010     6.4680     2.4260 N.pl3        1 GNP200   0.0000
    31 N3           3.2360     4.4340     2.3230 N.2          1 GNP200   0.0000
    32 C4           4.3890     3.8240     2.7120 C.2          1 GNP200   0.0000
    33 H3B          6.5917    -5.3666     3.7875 H            1 GNP200   0.0000
    34 H5'1         4.0036    -1.9340     3.5671 H            1 GNP200   0.0000
    35 H5'2         4.2357    -2.7010     2.1443 H            1 GNP200   0.0000
    36 H4'          2.4589    -1.1489     1.9117 H            1 GNP200   0.0000
    37 H3'          4.4832    -1.2656     0.1977 H            1 GNP200   0.0000
    38 H6           2.9521    -0.2950    -1.2288 H            1 GNP200   0.0000
    39 H2'          5.5840     0.6809     0.7740 H            1 GNP200   0.0000
    40 H8           5.1026     1.4052    -1.2470 H            1 GNP200   0.0000
    41 H1'          3.1101     1.9727     1.3798 H            1 GNP200   0.0000
    42 H10          6.4771     1.4922     3.0087 H            1 GNP200   0.0000
    43 H11          4.0250     7.2930     3.6935 H            1 GNP200   0.0000
    44 H12          1.3427     6.0786     1.9032 H            1 GNP200   0.0000
    45 H13          2.0633     7.4208     2.7274 H            1 GNP200   0.0000
@<TRIPOS>BOND
     1    1    2      ar
     2    1    3      ar
     3    1    4      ar
     4    1    5       1
     5    5    6       1
     6    6    7      ar
     7    6    8      ar
     8    6    9       1
     9    9   10       1
    10   10   11      ar
    11   10   12      ar
    12   10   13       1
    13   13   14       1
    14   14   15       1
    15   15   16       1
    16   15   17       1
    17   16   21       1
    18   17   18       1
    19   17   19       1
    20   19   20       1
    21   19   21       1
    22   21   22       1
    23   22   23       1
    24   22   32       1
    25   23   24       2
    26   24   25       1
    27   25   26       1
    28   25   32       2
    29   26   27       2
    30   26   28       1
    31   28   29       1
    32   29   30       1
    33   29   31       2
    34   31   32       1
    35   30   45       1
    36   30   44       1
    37    5   33       1
    38   28   43       1
    39   23   42       1
    40   14   34       1
    41   14   35       1
    42   15   36       1
    43   17   37       1
    44   18   38       1
    45   19   39       1
    46   20   40       1
    47   21   41       1
@<TRIPOS>SUBSTRUCTURE
     1 GNP200      1 GROUP             4 A     GNP     0 **** GNP A 200
