@<TRIPOS>MOLECULE
3qjm_ASP_GLU_THR_ASN_LEU_2_ligand
   77    76     5     0     0
SMALL
NO_CHARGES


@<TRIPOS>ATOM
     1 N           -3.0660    26.1050   -70.3770 N.4          1 ASP642   1.0000
     2 CA          -2.7520    27.3930   -70.9660 C.3          1 ASP642   0.0000
     3 C           -1.2750    27.4330   -71.3450 C.2          1 ASP642   0.0000
     4 O           -0.4720    26.7280   -70.7450 O.2          1 ASP642   0.0000
     5 CB          -3.1050    28.5160   -69.9850 C.3          1 ASP642   0.0000
     6 CG          -3.3010    29.8590   -70.6740 C.2          1 ASP642   0.0000
     7 OD1         -3.2790    29.9100   -71.9290 O.co2        1 ASP642   0.0000
     8 OD2         -3.5040    30.8690   -69.9630 O.co2        1 ASP642  -1.0000
     9 H1          -3.3082    25.4580   -71.1000 H            1 ASP642   0.0000
    10 H2          -2.2697    25.7639   -69.8775 H            1 ASP642   0.0000
    11 HA          -3.2989    27.5081   -71.7952 H            1 ASP642   0.0000
    12 HB1         -2.3642    28.6034   -69.3190 H            1 ASP642   0.0000
    13 HB2         -3.9517    28.2728   -69.5118 H            1 ASP642   0.0000
    14 N           -0.9330    28.2400   -72.3510 N.am         2 GLU643   0.0000
    15 CA           0.4510    28.4320   -72.7990 C.3          2 GLU643   0.0000
    16 C            0.8640    29.9060   -72.7960 C.2          2 GLU643   0.0000
    17 O            0.1610    30.7550   -73.3370 O.2          2 GLU643   0.0000
    18 CB           0.6390    27.8900   -74.2230 C.3          2 GLU643   0.0000
    19 CG           0.6760    26.3790   -74.3260 C.3          2 GLU643   0.0000
    20 CD           0.5480    25.8780   -75.7510 C.2          2 GLU643   0.0000
    21 OE1         -0.2010    26.4900   -76.5460 O.co2        2 GLU643   0.0000
    22 OE2          1.1980    24.8630   -76.0780 O.co2        2 GLU643  -1.0000
    23 H6          -1.6579    28.7402   -72.8245 H            2 GLU643   0.0000
    24 H7           1.0581    27.9293   -72.1836 H            2 GLU643   0.0000
    25 H8           1.5015    28.2477   -74.5810 H            2 GLU643   0.0000
    26 H9          -0.1185    28.2220   -74.7851 H            2 GLU643   0.0000
    27 HG1         -0.0790    26.0045   -73.7877 H            2 GLU643   0.0000
    28 HG2          1.5450    26.0555   -73.9515 H            2 GLU643   0.0000
    29 N            2.0190    30.2030   -72.2110 N.am         3 THR644   0.0000
    30 CA           2.5810    31.5480   -72.2620 C.3          3 THR644   0.0000
    31 C            4.0130    31.5420   -72.7970 C.2          3 THR644   0.0000
    32 O            4.8670    30.7960   -72.3130 O.2          3 THR644   0.0000
    33 CB           2.6050    32.1920   -70.8620 C.3          3 THR644   0.0000
    34 OG1          1.2960    32.1350   -70.2860 O.3          3 THR644   0.0000
    35 CG2          3.0580    33.6470   -70.9430 C.3          3 THR644   0.0000
    36 H12          2.5162    29.4857   -71.7229 H            3 THR644   0.0000
    37 H13          2.0150    32.1103   -72.8648 H            3 THR644   0.0000
    38 HB           3.2402    31.6843   -70.2800 H            3 THR644   0.0000
    39 H15          1.1956    31.2842   -69.7701 H            3 THR644   0.0000
    40 HG21         3.0664    34.0450   -70.0257 H            3 THR644   0.0000
    41 HG22         3.9779    33.6885   -71.3328 H            3 THR644   0.0000
    42 HG23         2.4265    34.1609   -71.5236 H            3 THR644   0.0000
    43 N            4.2690    32.3860   -73.7910 N.am         4 ASN645   0.0000
    44 CA           5.6110    32.5940   -74.3180 C.3          4 ASN645   0.0000
    45 C            6.3760    33.5520   -73.4160 C.2          4 ASN645   0.0000
    46 O            5.9360    34.6780   -73.2100 O.2          4 ASN645   0.0000
    47 CB           5.5350    33.1880   -75.7260 C.3          4 ASN645   0.0000
    48 CG           5.2410    32.1480   -76.7890 C.2          4 ASN645   0.0000
    49 OD1          6.0180    31.9700   -77.7280 O.2          4 ASN645   0.0000
    50 ND2          4.1170    31.4520   -76.6470 N.am         4 ASN645   0.0000
    51 H19          3.5104    32.8986   -74.1931 H            4 ASN645   0.0000
    52 H20          6.0919    31.7180   -74.3539 H            4 ASN645   0.0000
    53 H21          6.4110    33.6216   -75.9373 H            4 ASN645   0.0000
    54 H22          4.8097    33.8762   -75.7434 H            4 ASN645   0.0000
    55 HD21         3.8735    30.7529   -77.3193 H            4 ASN645   0.0000
    56 HD22         3.5152    31.6276   -75.8679 H            4 ASN645   0.0000
    57 N            7.5250    33.1170   -72.9020 N.am         5 LEU646   0.0000
    58 CA           8.2810    33.8860   -71.9050 C.3          5 LEU646   0.0000
    59 C            9.7650    34.0740   -72.2550 C.2          5 LEU646   0.0000
    60 O           10.4510    34.8850   -71.6310 O.co2        5 LEU646   0.0000
    61 CB           8.1510    33.2320   -70.5190 C.3          5 LEU646   0.0000
    62 CG           6.7870    33.3700   -69.8240 C.3          5 LEU646   0.0000
    63 CD1          6.6230    32.3970   -68.6790 C.3          5 LEU646   0.0000
    64 CD2          6.5610    34.8000   -69.3440 C.3          5 LEU646   0.0000
    65 OXT         10.3280    33.4200   -73.1420 O.co2        5 LEU646  -1.0000
    66 H25          7.8859    32.2352   -73.2058 H            5 LEU646   0.0000
    67 H26          7.8675    34.7948   -71.8490 H            5 LEU646   0.0000
    68 H27          8.8397    33.6439   -69.9223 H            5 LEU646   0.0000
    69 H28          8.3417    32.2560   -70.6239 H            5 LEU646   0.0000
    70 HG           6.0804    33.1628   -70.5006 H            5 LEU646   0.0000
    71 HD11         5.7241    32.5241   -68.2597 H            5 LEU646   0.0000
    72 HD12         6.7011    31.4613   -69.0230 H            5 LEU646   0.0000
    73 HD13         7.3353    32.5619   -67.9968 H            5 LEU646   0.0000
    74 H33          5.6691    34.8643   -68.8963 H            5 LEU646   0.0000
    75 H34          7.2788    35.0510   -68.6946 H            5 LEU646   0.0000
    76 HD23         6.5869    35.4222   -70.1264 H            5 LEU646   0.0000
    77 H36         -3.8365    26.2053   -69.7475 H            5 LEU646   0.0000
@<TRIPOS>BOND
     1    1    2       1
     2    2    5       1
     3    2    3       1
     4    5    6       1
     5    6    7      ar
     6    6    8      ar
     7    3    4       2
     8    1    9       1
     9    1   10       1
    10    2   11       1
    11    3   14      am
    12    5   12       1
    13    5   13       1
    14   14   15       1
    15   15   18       1
    16   15   16       1
    17   18   19       1
    18   19   20       1
    19   20   21      ar
    20   20   22      ar
    21   16   17       2
    22   19   28       1
    23   14   23       1
    24   15   24       1
    25   16   29      am
    26   18   25       1
    27   18   26       1
    28   19   27       1
    29   29   30       1
    30   30   33       1
    31   30   31       1
    32   33   35       1
    33   33   34       1
    34   31   32       2
    35   35   42       1
    36   29   36       1
    37   30   37       1
    38   31   43      am
    39   33   38       1
    40   34   39       1
    41   35   40       1
    42   35   41       1
    43   43   44       1
    44   44   47       1
    45   44   45       1
    46   47   48       1
    47   48   49       2
    48   48   50      am
    49   45   46       2
    50   50   56       1
    51   43   51       1
    52   44   52       1
    53   45   57      am
    54   47   53       1
    55   47   54       1
    56   50   55       1
    57   57   58       1
    58   58   61       1
    59   58   59       1
    60   61   62       1
    61   62   63       1
    62   62   64       1
    63   59   60      ar
    64   59   65      ar
    65   64   76       1
    66   57   66       1
    67   58   67       1
    68   61   68       1
    69   61   69       1
    70   62   70       1
    71   63   71       1
    72   63   72       1
    73   63   73       1
    74   64   74       1
    75   64   75       1
    76    1   77       1
@<TRIPOS>SUBSTRUCTURE
     1 ASP642      1 RESIDUE           4 D     ASP     0 **** ASP D 642
     2 GLU643     14 RESIDUE           4 D     GLU     0 **** GLU D 643
     3 THR644     29 RESIDUE           4 D     THR     0 **** THR D 644
     4 ASN645     43 RESIDUE           4 D     ASN     0 **** ASN D 645
     5 LEU646     57 RESIDUE           4 D     LEU     0 **** LEU D 646
