@<TRIPOS>MOLECULE
5f1a_SAL_1_ligand
   15    15     1     0     0
SMALL
NO_CHARGES


@<TRIPOS>ATOM
     1 C1'         43.6010    23.2350   239.9000 C.2          1 SAL601   0.0000
     2 O1'         44.1640    23.7820   238.9820 O.co2        1 SAL601   0.0000
     3 O2'         44.0830    22.3370   240.5710 O.co2        1 SAL601  -1.0000
     4 C1          42.2630    23.6900   240.2150 C.ar         1 SAL601   0.0000
     5 C2          41.7600    24.8940   239.6030 C.ar         1 SAL601   0.0000
     6 C3          40.5120    25.3090   239.8950 C.ar         1 SAL601   0.0000
     7 C4          39.7720    24.5820   240.7700 C.ar         1 SAL601   0.0000
     8 C5          40.2570    23.4420   241.3580 C.ar         1 SAL601   0.0000
     9 C6          41.5110    22.9870   241.0870 C.ar         1 SAL601   0.0000
    10 O2          42.5050    25.6060   238.7580 O.3          1 SAL601   0.0000
    11 H1          40.1384    26.1362   239.4754 H            1 SAL601   0.0000
    12 H2          38.8459    24.8866   240.9925 H            1 SAL601   0.0000
    13 H3          39.6788    22.9356   241.9977 H            1 SAL601   0.0000
    14 H4          41.8637    22.1578   241.5206 H            1 SAL601   0.0000
    15 H5          43.4336    25.3079   238.5369 H            1 SAL601   0.0000
@<TRIPOS>BOND
     1    1    2      ar
     2    1    3      ar
     3    1    4       1
     4    4    5      ar
     5    4    9      ar
     6    5    6      ar
     7    5   10       1
     8    6    7      ar
     9    7    8      ar
    10    8    9      ar
    11   10   15       1
    12    6   11       1
    13    7   12       1
    14    8   13       1
    15    9   14       1
@<TRIPOS>SUBSTRUCTURE
     1 SAL601      1 GROUP             4 A     SAL     0 **** SAL A 601
