@<TRIPOS>MOLECULE
1hyh_NAD_2_ligand
   70    74     1     0     0
SMALL
NO_CHARGES


@<TRIPOS>ATOM
     1 PA           4.7810   -26.7740    -7.8270 P.3          1 NAD330   0.0000
     2 O1A          4.9800   -28.1660    -8.3350 O.co2        1 NAD330   0.0000
     3 O2A          3.8780   -26.6670    -6.6210 O.co2        1 NAD330  -1.0000
     4 O5B          4.1750   -25.8240    -8.9390 O.3          1 NAD330   0.0000
     5 C5B          4.5340   -25.9230   -10.3390 C.3          1 NAD330   0.0000
     6 C4B          3.3010   -25.6310   -11.1110 C.3          1 NAD330   0.0000
     7 O4B          3.7500   -25.7110   -12.5260 O.3          1 NAD330   0.0000
     8 C3B          2.1220   -26.6140   -11.0600 C.3          1 NAD330   0.0000
     9 O3B          0.8630   -26.0090   -10.6140 O.3          1 NAD330   0.0000
    10 C2B          1.9840   -27.2900   -12.3940 C.3          1 NAD330   0.0000
    11 O2B          0.7430   -27.7410   -12.7650 O.3          1 NAD330   0.0000
    12 C1B          2.6400   -26.2080   -13.2520 C.3          1 NAD330   0.0000
    13 N9A          3.1550   -26.6480   -14.5170 N.pl3        1 NAD330   0.0000
    14 C8A          4.0190   -27.6410   -14.8800 C.2          1 NAD330   0.0000
    15 N7A          4.2650   -27.7260   -16.1910 N.2          1 NAD330   0.0000
    16 C5A          3.5300   -26.7500   -16.7490 C.ar         1 NAD330   0.0000
    17 C6A          3.3990   -26.3730   -18.1560 C.ar         1 NAD330   0.0000
    18 N6A          3.9990   -26.9600   -19.1640 N.pl3        1 NAD330   0.0000
    19 N1A          2.5580   -25.2950   -18.3410 N.ar         1 NAD330   0.0000
    20 C2A          1.8910   -24.6570   -17.3710 C.ar         1 NAD330   0.0000
    21 N3A          1.9810   -24.9840   -16.0320 N.ar         1 NAD330   0.0000
    22 C4A          2.8310   -26.0510   -15.7670 C.ar         1 NAD330   0.0000
    23 O3           6.1600   -26.1550    -7.5510 O.3          1 NAD330   0.0000
    24 PN           6.6370   -24.8000    -6.7890 P.3          1 NAD330   0.0000
    25 O1N          7.0080   -25.1740    -5.4190 O.co2        1 NAD330   0.0000
    26 O2N          5.5920   -23.7610    -6.9270 O.co2        1 NAD330  -1.0000
    27 O5D          7.9130   -24.3830    -7.6160 O.3          1 NAD330   0.0000
    28 C5D          7.8110   -24.0030    -9.0330 C.3          1 NAD330   0.0000
    29 C4D          9.1850   -23.9450    -9.5550 C.3          1 NAD330   0.0000
    30 O4D          9.8550   -22.8890    -8.6650 O.3          1 NAD330   0.0000
    31 C3D         10.0750   -25.2030    -9.2960 C.3          1 NAD330   0.0000
    32 O3D         10.9570   -25.2540   -10.3990 O.3          1 NAD330   0.0000
    33 C2D         10.9020   -24.9000    -8.0020 C.3          1 NAD330   0.0000
    34 O2D         12.1610   -25.4760    -8.1020 O.3          1 NAD330   0.0000
    35 C1D         11.1140   -23.3770    -8.3080 C.3          1 NAD330   0.0000
    36 N1N         11.7900   -22.5490    -7.2390 N.ar         1 NAD330   1.0000
    37 C2N         12.8670   -21.8050    -7.6900 C.ar         1 NAD330   0.0000
    38 C3N         13.4770   -21.0580    -6.7370 C.ar         1 NAD330   0.0000
    39 C7N         14.6750   -20.2030    -7.2720 C.2          1 NAD330   0.0000
    40 O7N         15.3070   -19.6160    -6.3880 O.2          1 NAD330   0.0000
    41 N7N         14.8800   -20.1260    -8.6070 N.am         1 NAD330   0.0000
    42 C4N         13.1250   -20.9560    -5.3890 C.ar         1 NAD330   0.0000
    43 C5N         12.0190   -21.7880    -5.0330 C.ar         1 NAD330   0.0000
    44 C6N         11.3560   -22.5650    -5.9500 C.ar         1 NAD330   0.0000
    45 H5B1         4.8621   -26.8444   -10.5473 H            1 NAD330   0.0000
    46 H5B2         5.2465   -25.2573   -10.5610 H            1 NAD330   0.0000
    47 H4B          2.9821   -24.7055   -10.9065 H            1 NAD330   0.0000
    48 H3B          2.3590   -27.3224   -10.3951 H            1 NAD330   0.0000
    49 H5           0.3619   -25.6601   -11.4059 H            1 NAD330   0.0000
    50 H2B          2.5979   -28.0793   -12.3915 H            1 NAD330   0.0000
    51 H7           0.2593   -27.0180   -13.2583 H            1 NAD330   0.0000
    52 H1B          1.9865   -25.4663   -13.4027 H            1 NAD330   0.0000
    53 H8A          4.4369   -28.2591   -14.2141 H            1 NAD330   0.0000
    54 H6A1         3.8480   -26.6309   -20.0962 H            1 NAD330   0.0000
    55 H6A2         4.6074   -27.7366   -19.0003 H            1 NAD330   0.0000
    56 H2A          1.2926   -23.8993   -17.6312 H            1 NAD330   0.0000
    57 H5D1         7.3715   -23.1089    -9.1193 H            1 NAD330   0.0000
    58 H5D2         7.2800   -24.6853    -9.5354 H            1 NAD330   0.0000
    59 H4D          9.2006   -23.6765   -10.5182 H            1 NAD330   0.0000
    60 H3D          9.5314   -26.0379    -9.2091 H            1 NAD330   0.0000
    61 H17         11.2023   -26.2053   -10.5860 H            1 NAD330   0.0000
    62 H2D         10.4223   -25.0910    -7.1456 H            1 NAD330   0.0000
    63 H19         12.0671   -26.4657    -8.2099 H            1 NAD330   0.0000
    64 H1D         11.6888   -23.3222    -9.1245 H            1 NAD330   0.0000
    65 H2N         13.1708   -21.8176    -8.6427 H            1 NAD330   0.0000
    66 H7N1        15.6403   -19.5844    -8.9657 H            1 NAD330   0.0000
    67 H7N2        14.2712   -20.6106    -9.2351 H            1 NAD330   0.0000
    68 H4N         13.5987   -20.3614    -4.7393 H            1 NAD330   0.0000
    69 H5N         11.7167   -21.8048    -4.0799 H            1 NAD330   0.0000
    70 H6N         10.5753   -23.1275    -5.6778 H            1 NAD330   0.0000
@<TRIPOS>BOND
     1    1    2      ar
     2    1    3      ar
     3    1    4       1
     4    1   23       1
     5    4    5       1
     6    5    6       1
     7    6    7       1
     8    6    8       1
     9    7   12       1
    10    8    9       1
    11    8   10       1
    12   10   11       1
    13   10   12       1
    14   12   13       1
    15   13   14       1
    16   13   22       1
    17   14   15       2
    18   15   16       1
    19   16   17      ar
    20   16   22      ar
    21   17   18       1
    22   17   19      ar
    23   19   20      ar
    24   20   21      ar
    25   21   22      ar
    26   23   24       1
    27   24   25      ar
    28   24   26      ar
    29   24   27       1
    30   27   28       1
    31   28   29       1
    32   29   30       1
    33   29   31       1
    34   30   35       1
    35   31   32       1
    36   31   33       1
    37   33   34       1
    38   33   35       1
    39   35   36       1
    40   36   37      ar
    41   36   44      ar
    42   37   38      ar
    43   38   39       1
    44   38   42      ar
    45   39   40       2
    46   39   41      am
    47   42   43      ar
    48   43   44      ar
    49   44   70       1
    50    5   45       1
    51    5   46       1
    52    6   47       1
    53    8   48       1
    54    9   49       1
    55   10   50       1
    56   11   51       1
    57   12   52       1
    58   14   53       1
    59   18   54       1
    60   18   55       1
    61   20   56       1
    62   43   69       1
    63   28   57       1
    64   28   58       1
    65   29   59       1
    66   31   60       1
    67   32   61       1
    68   33   62       1
    69   34   63       1
    70   35   64       1
    71   37   65       1
    72   41   66       1
    73   41   67       1
    74   42   68       1
@<TRIPOS>SUBSTRUCTURE
     1 NAD330      1 GROUP             4 B     NAD     0 **** NAD B 330
