@<TRIPOS>MOLECULE
1zs6_ADP_1_ligand
   39    41     1     0     0
SMALL
NO_CHARGES


@<TRIPOS>ATOM
     1 PB          63.2820    33.4960    -1.6260 P.3          1 ADP201   0.0000
     2 O1B         64.0930    33.7410    -0.3700 O.co2        1 ADP201   0.0000
     3 O2B         62.1560    32.5100    -1.4120 O.co2        1 ADP201  -1.0000
     4 O3B         62.8560    34.7510    -2.3580 O.co2        1 ADP201  -1.0000
     5 PA          65.8230    33.0180    -2.9800 P.3          1 ADP201   0.0000
     6 O1A         66.3970    33.9440    -1.9330 O.co2        1 ADP201   0.0000
     7 O2A         66.4850    31.6870    -3.2470 O.co2        1 ADP201  -1.0000
     8 O3A         64.2560    32.7130    -2.6650 O.3          1 ADP201   0.0000
     9 O5'         65.8160    33.7970    -4.3840 O.3          1 ADP201   0.0000
    10 C5'         65.2970    35.1180    -4.4940 C.3          1 ADP201   0.0000
    11 C4'         64.4200    35.2030    -5.7370 C.3          1 ADP201   0.0000
    12 O4'         65.1620    34.7620    -6.8750 O.3          1 ADP201   0.0000
    13 C3'         63.1870    34.3080    -5.6790 C.3          1 ADP201   0.0000
    14 O3'         62.0830    34.9640    -5.0420 O.3          1 ADP201   0.0000
    15 C2'         62.9280    33.9600    -7.1350 C.3          1 ADP201   0.0000
    16 O2'         62.0550    34.9020    -7.7830 O.3          1 ADP201   0.0000
    17 C1'         64.3010    34.0710    -7.7840 C.3          1 ADP201   0.0000
    18 N9          64.8250    32.7100    -8.0860 N.pl3        1 ADP201   0.0000
    19 C8          65.2830    31.8020    -7.1960 C.2          1 ADP201   0.0000
    20 N7          65.6820    30.6590    -7.8170 N.2          1 ADP201   0.0000
    21 C5          65.4780    30.8350    -9.1340 C.ar         1 ADP201   0.0000
    22 C6          65.6830    30.0310   -10.3560 C.ar         1 ADP201   0.0000
    23 N6          66.1950    28.7860   -10.2690 N.pl3        1 ADP201   0.0000
    24 N1          65.3390    30.5810   -11.5490 N.ar         1 ADP201   0.0000
    25 C2          64.8260    31.8320   -11.6360 C.ar         1 ADP201   0.0000
    26 N3          64.6120    32.6220   -10.5640 N.ar         1 ADP201   0.0000
    27 C4          64.9120    32.1860    -9.3110 C.ar         1 ADP201   0.0000
    28 H5'1        66.0516    35.7696    -4.5706 H            1 ADP201   0.0000
    29 H5'2        64.7520    35.3329    -3.6836 H            1 ADP201   0.0000
    30 H4'         64.1341    36.1512    -5.8758 H            1 ADP201   0.0000
    31 H3'         63.4093    33.4732    -5.1753 H            1 ADP201   0.0000
    32 H5          62.1088    34.7814    -4.0591 H            1 ADP201   0.0000
    33 H2'         62.5705    33.0298    -7.2189 H            1 ADP201   0.0000
    34 H7          61.2385    34.4278    -8.1123 H            1 ADP201   0.0000
    35 H1'         64.2258    34.5940    -8.6330 H            1 ADP201   0.0000
    36 H9          65.3235    31.9510    -6.2080 H            1 ADP201   0.0000
    37 H10         66.3331    28.2431   -11.0974 H            1 ADP201   0.0000
    38 H11         66.4365    28.4059    -9.3761 H            1 ADP201   0.0000
    39 H12         64.5942    32.1878   -12.5414 H            1 ADP201   0.0000
@<TRIPOS>BOND
     1    1    2      ar
     2    1    3      ar
     3    1    4      ar
     4    1    8       1
     5    5    6      ar
     6    5    7      ar
     7    5    8       1
     8    5    9       1
     9    9   10       1
    10   10   11       1
    11   11   12       1
    12   11   13       1
    13   12   17       1
    14   13   14       1
    15   13   15       1
    16   15   16       1
    17   15   17       1
    18   17   18       1
    19   18   19       1
    20   18   27       1
    21   19   20       2
    22   20   21       1
    23   21   22      ar
    24   21   27      ar
    25   22   23       1
    26   22   24      ar
    27   24   25      ar
    28   25   26      ar
    29   26   27      ar
    30   25   39       1
    31   23   38       1
    32   23   37       1
    33   10   28       1
    34   10   29       1
    35   11   30       1
    36   13   31       1
    37   14   32       1
    38   15   33       1
    39   16   34       1
    40   17   35       1
    41   19   36       1
@<TRIPOS>SUBSTRUCTURE
     1 ADP201      1 GROUP             4 A     ADP     0 **** ADP A 201
