@<TRIPOS>MOLECULE
1xef_ATP_3_ligand
   43    45     1     0     0
SMALL
NO_CHARGES


@<TRIPOS>ATOM
     1 PG          20.2640    39.8290     5.5430 P.3          1 ATP2800   0.0000
     2 O1G         19.6020    38.8500     4.6130 O.co2        1 ATP2800   0.0000
     3 O2G         21.7690    39.8250     5.4610 O.co2        1 ATP2800  -1.0000
     4 O3G         19.6200    41.1910     5.5390 O.co2        1 ATP2800  -1.0000
     5 PB          20.0180    39.9590     8.4020 P.3          1 ATP2800   0.0000
     6 O1B         21.3460    39.6200     9.0300 O.co2        1 ATP2800   0.0000
     7 O2B         19.6000    41.4040     8.2480 O.co2        1 ATP2800  -1.0000
     8 O3B         19.9290    39.1970     6.9850 O.3          1 ATP2800   0.0000
     9 PA          17.5950    39.8440     9.8840 P.3          1 ATP2800   0.0000
    10 O1A         16.8550    40.6450     8.8450 O.co2        1 ATP2800   0.0000
    11 O2A         18.0200    40.5280    11.1580 O.co2        1 ATP2800  -1.0000
    12 O3A         18.8870    39.1540     9.2180 O.3          1 ATP2800   0.0000
    13 O5'         16.6830    38.5720    10.2670 O.3          1 ATP2800   0.0000
    14 C5'         17.1600    37.5070    11.0940 C.3          1 ATP2800   0.0000
    15 C4'         16.0780    36.4370    11.2410 C.3          1 ATP2800   0.0000
    16 O4'         14.8410    37.0180    11.6740 O.3          1 ATP2800   0.0000
    17 C3'         15.7870    35.7230     9.9300 C.3          1 ATP2800   0.0000
    18 O3'         15.6970    34.3220    10.1970 O.3          1 ATP2800   0.0000
    19 C2'         14.4350    36.2440     9.4820 C.3          1 ATP2800   0.0000
    20 O2'         13.6600    35.2440     8.8160 O.3          1 ATP2800   0.0000
    21 C1'         13.7760    36.6840    10.7780 C.3          1 ATP2800   0.0000
    22 N9          12.9010    37.8680    10.6040 N.pl3        1 ATP2800   0.0000
    23 C8          13.2510    39.0530    10.0670 C.2          1 ATP2800   0.0000
    24 N7          12.2080    39.9220    10.0740 N.2          1 ATP2800   0.0000
    25 C5          11.1620    39.2870    10.6330 C.ar         1 ATP2800   0.0000
    26 C6           9.7530    39.6210    10.9540 C.ar         1 ATP2800   0.0000
    27 N6           9.2410    40.8410    10.6660 N.pl3        1 ATP2800   0.0000
    28 N1           8.9940    38.6650    11.5400 N.ar         1 ATP2800   0.0000
    29 C2           9.4840    37.4420    11.8320 C.ar         1 ATP2800   0.0000
    30 N3          10.7530    37.0740    11.5700 N.ar         1 ATP2800   0.0000
    31 C4          11.6250    37.9350    10.9830 C.ar         1 ATP2800   0.0000
    32 H5'1        17.3943    37.8678    11.9968 H            1 ATP2800   0.0000
    33 H5'2        17.9728    37.1013    10.6760 H            1 ATP2800   0.0000
    34 H4'         16.3759    35.7643    11.9183 H            1 ATP2800   0.0000
    35 H3'         16.4928    35.9165     9.2486 H            1 ATP2800   0.0000
    36 H5          14.7894    33.9911     9.9386 H            1 ATP2800   0.0000
    37 H2'         14.5587    37.0330     8.8802 H            1 ATP2800   0.0000
    38 H7          13.8531    35.2710     7.8352 H            1 ATP2800   0.0000
    39 H1'         13.2440    35.9270    11.1573 H            1 ATP2800   0.0000
    40 H9          14.1607    39.2649     9.7098 H            1 ATP2800   0.0000
    41 H10          8.2887    41.0491    10.8895 H            1 ATP2800   0.0000
    42 H11          9.8151    41.5339    10.2299 H            1 ATP2800   0.0000
    43 H12          8.8753    36.7765    12.2640 H            1 ATP2800   0.0000
@<TRIPOS>BOND
     1    1    2      ar
     2    1    3      ar
     3    1    4      ar
     4    1    8       1
     5    5    6      ar
     6    5    7      ar
     7    5    8       1
     8    5   12       1
     9    9   10      ar
    10    9   11      ar
    11    9   12       1
    12    9   13       1
    13   13   14       1
    14   14   15       1
    15   15   16       1
    16   15   17       1
    17   16   21       1
    18   17   18       1
    19   17   19       1
    20   19   20       1
    21   19   21       1
    22   21   22       1
    23   22   23       1
    24   22   31       1
    25   23   24       2
    26   24   25       1
    27   25   26      ar
    28   25   31      ar
    29   26   27       1
    30   26   28      ar
    31   28   29      ar
    32   29   30      ar
    33   30   31      ar
    34   29   43       1
    35   27   42       1
    36   27   41       1
    37   23   40       1
    38   14   32       1
    39   14   33       1
    40   15   34       1
    41   17   35       1
    42   18   36       1
    43   19   37       1
    44   20   38       1
    45   21   39       1
@<TRIPOS>SUBSTRUCTURE
     1 ATP2800     1 GROUP             4 C     ATP     0 **** ATP C2800
