@<TRIPOS>MOLECULE
2e40_LGC_1_ligand
   22    22     1     0     0
SMALL
NO_CHARGES


@<TRIPOS>ATOM
     1 C1         -22.3000   -16.7460     8.1220 C.2          1 LGC1001   0.0000
     2 C2         -22.4330   -15.4570     8.9630 C.3          1 LGC1001   0.0000
     3 O5         -23.1340   -17.8080     8.3380 O.3          1 LGC1001   0.0000
     4 O1         -21.4780   -16.8180     7.2470 O.2          1 LGC1001   0.0000
     5 O2         -21.1450   -14.9090     9.2250 O.3          1 LGC1001   0.0000
     6 C3         -23.1700   -15.6920    10.3210 C.3          1 LGC1001   0.0000
     7 O3         -23.6110   -14.4310    10.8360 O.3          1 LGC1001   0.0000
     8 C4         -24.3780   -16.6280    10.1230 C.3          1 LGC1001   0.0000
     9 O4         -25.0760   -16.8060    11.3620 O.3          1 LGC1001   0.0000
    10 C5         -23.8530   -17.9840     9.5990 C.3          1 LGC1001   0.0000
    11 C6         -25.0030   -18.9650     9.3780 C.3          1 LGC1001   0.0000
    12 O6         -25.7530   -18.5770     8.2290 O.3          1 LGC1001   0.0000
    13 H1         -22.9563   -14.7894     8.4334 H            1 LGC1001   0.0000
    14 H2         -20.7873   -15.2909    10.0772 H            1 LGC1001   0.0000
    15 H3         -22.5349   -16.1085    10.9716 H            1 LGC1001   0.0000
    16 H4         -23.6258   -14.4658    11.8353 H            1 LGC1001   0.0000
    17 H5         -24.9985   -16.2296     9.4475 H            1 LGC1001   0.0000
    18 H6         -25.8567   -17.4146    11.2203 H            1 LGC1001   0.0000
    19 H7         -23.2262   -18.3699    10.2759 H            1 LGC1001   0.0000
    20 H8         -25.5998   -18.9635    10.1804 H            1 LGC1001   0.0000
    21 H9         -24.6338   -19.8839     9.2390 H            1 LGC1001   0.0000
    22 H10        -26.4861   -17.9549     8.5039 H            1 LGC1001   0.0000
@<TRIPOS>BOND
     1    1    2       1
     2    1    3       1
     3    1    4       2
     4    2    5       1
     5    2    6       1
     6    3   10       1
     7    6    7       1
     8    6    8       1
     9    8    9       1
    10    8   10       1
    11   10   11       1
    12   11   12       1
    13    2   13       1
    14    5   14       1
    15    6   15       1
    16    7   16       1
    17    8   17       1
    18    9   18       1
    19   10   19       1
    20   11   20       1
    21   11   21       1
    22   12   22       1
@<TRIPOS>SUBSTRUCTURE
     1 LGC1001     1 GROUP             4 A     LGC     0 **** LGC A1001
