@<TRIPOS>MOLECULE
2bpo_NAP_3_ligand
   62    65     1     0     0
SMALL
NO_CHARGES


@<TRIPOS>ATOM
     1 PA          16.3730    48.8810   118.2880 P.3          1 NAP753   0.0000
     2 O1A         16.3820    47.7070   117.3270 O.co2        1 NAP753   0.0000
     3 O2A         17.6530    49.4970   118.7280 O.co2        1 NAP753  -1.0000
     4 O5B         15.5010    50.1280   117.7830 O.3          1 NAP753   0.0000
     5 C5B         14.8080    50.1030   116.5530 C.3          1 NAP753   0.0000
     6 C4B         15.3420    51.1400   115.5810 C.3          1 NAP753   0.0000
     7 O4B         15.1460    52.5300   115.9690 O.3          1 NAP753   0.0000
     8 C3B         16.8070    51.0940   115.2710 C.3          1 NAP753   0.0000
     9 O3B         16.8840    51.1850   113.8570 O.3          1 NAP753   0.0000
    10 C2B         17.3700    52.2710   116.0470 C.3          1 NAP753   0.0000
    11 O2B         18.6520    52.7250   115.5080 O.3          1 NAP753   0.0000
    12 C1B         16.3680    53.2900   115.8750 C.3          1 NAP753   0.0000
    13 N9A         16.3350    54.3880   116.9100 N.pl3        1 NAP753   0.0000
    14 C8A         17.0450    54.6280   118.0320 C.2          1 NAP753   0.0000
    15 N7A         16.6580    55.7750   118.6230 N.2          1 NAP753   0.0000
    16 C5A         15.7120    56.2310   117.8460 C.ar         1 NAP753   0.0000
    17 C6A         14.9790    57.4110   117.9910 C.ar         1 NAP753   0.0000
    18 N6A         15.1570    58.2700   118.9820 N.pl3        1 NAP753   0.0000
    19 N1A         14.0270    57.6850   117.0380 N.ar         1 NAP753   0.0000
    20 C2A         13.7890    56.8550   115.9880 C.ar         1 NAP753   0.0000
    21 N3A         14.4850    55.7240   115.8290 N.ar         1 NAP753   0.0000
    22 C4A         15.4680    55.3900   116.7650 C.ar         1 NAP753   0.0000
    23 O3          15.4060    48.5820   119.5320 O.3          1 NAP753   0.0000
    24 PN          14.1440    47.6770   119.6990 P.3          1 NAP753   0.0000
    25 O1N         14.1140    46.7560   118.5510 O.co2        1 NAP753   0.0000
    26 O2N         12.9990    48.6260   119.8980 O.co2        1 NAP753  -1.0000
    27 O5D         14.6570    46.9970   121.0420 O.3          1 NAP753   0.0000
    28 C5D         15.3590    47.7200   122.1410 C.3          1 NAP753   0.0000
    29 C4D         15.7430    46.8370   123.2990 C.3          1 NAP753   0.0000
    30 O4D         16.1310    47.6610   124.4040 O.3          1 NAP753   0.0000
    31 C3D         14.6250    45.8960   123.8740 C.3          1 NAP753   0.0000
    32 O3D         15.1600    44.6000   124.1600 O.3          1 NAP753   0.0000
    33 C2D         14.1170    46.6030   125.0980 C.3          1 NAP753   0.0000
    34 O2D         13.5080    45.7160   126.0470 O.3          1 NAP753   0.0000
    35 C1D         15.3470    47.3070   125.5900 C.3          1 NAP753   0.0000
    36 N1N         15.1980    48.6320   126.2840 N.4          1 NAP753   1.0000
    37 P2B         19.9890    53.0320   116.2830 P.3          1 NAP753   0.0000
    38 O1X         20.3230    54.4330   115.9850 O.co2        1 NAP753   0.0000
    39 O2X         20.8310    52.0130   115.6770 O.co2        1 NAP753  -1.0000
    40 O3X         19.6800    52.7550   117.7090 O.co2        1 NAP753  -1.0000
    41 H5B1        13.8401    50.2878   116.7234 H            1 NAP753   0.0000
    42 H5B2        14.9072    49.1957   116.1445 H            1 NAP753   0.0000
    43 H4B         14.8566    51.0071   114.7169 H            1 NAP753   0.0000
    44 H3B         17.2084    50.2360   115.5915 H            1 NAP753   0.0000
    45 H5          17.7379    51.6364   113.5980 H            1 NAP753   0.0000
    46 H2B         17.4638    52.0361   117.0145 H            1 NAP753   0.0000
    47 H1B         16.4470    53.6898   114.9618 H            1 NAP753   0.0000
    48 H8A         17.7669    54.0302   118.3806 H            1 NAP753   0.0000
    49 H6A1        14.5998    59.0989   119.0313 H            1 NAP753   0.0000
    50 H6A2        15.8487    58.0901   119.6815 H            1 NAP753   0.0000
    51 H2A         13.0814    57.0942   115.3231 H            1 NAP753   0.0000
    52 H5D1        14.7550    48.4410   122.4806 H            1 NAP753   0.0000
    53 H5D2        16.1910    48.1305   121.7677 H            1 NAP753   0.0000
    54 H4D         16.5252    46.2760   123.0280 H            1 NAP753   0.0000
    55 H3D         13.8850    45.8113   123.2068 H            1 NAP753   0.0000
    56 H16         14.4366    44.0138   124.5248 H            1 NAP753   0.0000
    57 H2D         13.4438    47.2876   124.8186 H            1 NAP753   0.0000
    58 H18         13.1015    44.9400   125.5647 H            1 NAP753   0.0000
    59 H1D         15.8777    46.6864   126.1672 H            1 NAP753   0.0000
    60 H1N1        14.3686    49.0868   125.9595 H            1 NAP753   0.0000
    61 H1N2        15.1336    48.4859   127.2712 H            1 NAP753   0.0000
    62 H1N3        15.9927    49.2048   126.0830 H            1 NAP753   0.0000
@<TRIPOS>BOND
     1    1    2      ar
     2    1    3      ar
     3    1    4       1
     4    1   23       1
     5    4    5       1
     6    5    6       1
     7    6    7       1
     8    6    8       1
     9    7   12       1
    10    8    9       1
    11    8   10       1
    12   10   11       1
    13   10   12       1
    14   11   37       1
    15   12   13       1
    16   13   14       1
    17   13   22       1
    18   14   15       2
    19   15   16       1
    20   16   17      ar
    21   16   22      ar
    22   17   18       1
    23   17   19      ar
    24   19   20      ar
    25   20   21      ar
    26   21   22      ar
    27   23   24       1
    28   24   25      ar
    29   24   26      ar
    30   24   27       1
    31   27   28       1
    32   28   29       1
    33   29   30       1
    34   29   31       1
    35   30   35       1
    36   31   32       1
    37   31   33       1
    38   33   34       1
    39   33   35       1
    40   35   36       1
    41   37   38      ar
    42   37   39      ar
    43   37   40      ar
    44   36   61       1
    45    5   41       1
    46    5   42       1
    47    6   43       1
    48    8   44       1
    49    9   45       1
    50   10   46       1
    51   12   47       1
    52   14   48       1
    53   18   49       1
    54   18   50       1
    55   20   51       1
    56   36   62       1
    57   28   52       1
    58   28   53       1
    59   29   54       1
    60   31   55       1
    61   32   56       1
    62   33   57       1
    63   34   58       1
    64   35   59       1
    65   36   60       1
@<TRIPOS>SUBSTRUCTURE
     1 NAP753      1 GROUP             4 A     NAP     0 **** NAP A 753
