@<TRIPOS>MOLECULE
./coach420/1p77/ligand.pdb
 31 33 0 0 0
SMALL
GASTEIGER

@<TRIPOS>ATOM
      1  PB        30.6520   10.2750   10.6650 P.3   300  ATR300      0.5373
      2  O1B       29.5250    9.7700   11.8190 O.3   300  ATR300     -0.1143
      3  O2B       29.7650   11.1020    9.6400 O.2   300  ATR300     -0.2221
      4  O3B       31.7990   11.0740   11.2240 O.3   300  ATR300     -0.1143
      5  PA        30.3140    7.9130    9.1300 P.3   300  ATR300      0.2231
      6  O1A       29.0730    8.4720    8.4780 O.3   300  ATR300     -0.4370
      7  O2A       31.2170    6.9380    8.0530 O.2   300  ATR300     -0.5169
      8  O3A       31.2470    9.0610    9.7830 O.3   300  ATR300     -0.2261
      9  O5'       29.8660    7.0420   10.4040 O.3   300  ATR300     -0.3111
     10  C5'       30.7340    6.9000   11.5270 C.3   300  ATR300      0.1813
     11  C4'       29.9650    6.0760   12.5420 C.3   300  ATR300      0.1800
     12  O4'       29.4000    5.0140   11.7830 O.3   300  ATR300     -0.3307
     13  C3'       30.8140    5.4850   13.6640 C.3   300  ATR300      0.2134
     14  O3'       30.0130    5.5440   14.8390 O.3   300  ATR300     -0.2176
     15  C2'       30.6920    3.9920   13.5010 C.3   300  ATR300      0.2081
     16  O2'       31.6920    3.0110   13.7210 O.3   300  ATR300     -0.2654
     17  P2'       33.1160    3.1440   14.4220 P.3   300  ATR300      0.5327
     18  O1P       33.3090    1.8500   15.2170 O.3   300  ATR300     -0.1145
     19  O2P       33.2240    4.5010   15.4000 O.3   300  ATR300     -0.1145
     20  O3P       34.1770    3.2140   13.1070 O.2   300  ATR300     -0.2224
     21  C1'       29.8220    3.7570   12.3070 C.3   300  ATR300      0.2382
     22  N9        30.0720    2.6800   11.3310 N.ar  300  ATR300     -0.2694
     23  C8        30.5630    2.6520   10.0750 C.ar  300  ATR300      0.1816
     24  N7        30.5070    1.3960    9.5890 N.ar  300  ATR300     -0.2193
     25  C5        29.8640    0.6650   10.4990 C.ar  300  ATR300      0.1518
     26  C6        29.5760   -0.7870   10.6200 C.ar  300  ATR300      0.1919
     27  N6        29.7910   -1.6340    9.5850 N.pl3 300  ATR300     -0.1054
     28  N1        28.9790   -1.1880   11.7660 N.ar  300  ATR300     -0.2040
     29  C2        28.7510   -0.3400   12.7890 C.ar  300  ATR300      0.2016
     30  N3        29.0720    0.9580   12.7550 N.ar  300  ATR300     -0.2048
     31  C4        29.6510    1.4790   11.6770 C.ar  300  ATR300      0.1692
@<TRIPOS>BOND
     1     1     3    2
     2     1     8    1
     3     1     4    1
     4     1     2    1
     5     5     7    2
     6     5     6    1
     7     5     8    1
     8     5     9    1
     9     9    10    1
    10    10    11    1
    11    11    12    1
    12    11    13    1
    13    12    21    1
    14    13    15    1
    15    13    14    1
    16    15    21    1
    17    15    16    1
    18    16    17    1
    19    17    20    2
    20    17    18    1
    21    17    19    1
    22    21    22    1
    23    22    23   ar
    24    22    31   ar
    25    23    24   ar
    26    24    25   ar
    27    25    26   ar
    28    25    31   ar
    29    26    27    1
    30    26    28   ar
    31    28    29   ar
    32    29    30   ar
    33    30    31   ar
