@<TRIPOS>MOLECULE
4bmp_FMN_1_ligand
   50    52     1     0     0
SMALL
NO_CHARGES


@<TRIPOS>ATOM
     1 N1          31.5860    19.2710   -10.7940 N.2          1 FMN1120   0.0000
     2 C2          32.8300    19.7050   -10.4880 C.2          1 FMN1120   0.0000
     3 O2          33.0020    20.9160   -10.4250 O.2          1 FMN1120   0.0000
     4 N3          33.8200    18.8810   -10.1990 N.pl3        1 FMN1120   0.0000
     5 C4          33.6090    17.5490   -10.1460 C.2          1 FMN1120   0.0000
     6 O4          34.5100    16.7590    -9.8660 O.2          1 FMN1120   0.0000
     7 C4A         32.3570    16.9700   -10.5530 C.2          1 FMN1120   0.0000
     8 N5          32.1820    15.6280   -10.5640 N.2          1 FMN1120   0.0000
     9 C5A         30.9750    15.1370   -10.8610 C.ar         1 FMN1120   0.0000
    10 C6          30.7460    13.7280   -10.9020 C.ar         1 FMN1120   0.0000
    11 C7          29.4720    13.2220   -11.2110 C.ar         1 FMN1120   0.0000
    12 C7M         29.1260    11.7030   -11.2810 C.3          1 FMN1120   0.0000
    13 C8          28.3860    14.2150   -11.5320 C.ar         1 FMN1120   0.0000
    14 C8M         26.9810    13.7540   -11.9170 C.3          1 FMN1120   0.0000
    15 C9          28.6200    15.5820   -11.4650 C.ar         1 FMN1120   0.0000
    16 C9A         29.8830    16.0930   -11.1960 C.ar         1 FMN1120   0.0000
    17 N10         30.0380    17.5060   -11.1870 N.pl3        1 FMN1120   0.0000
    18 C10         31.3040    17.9520   -10.8610 C.2          1 FMN1120   0.0000
    19 C1'         28.9550    18.4540   -11.5180 C.3          1 FMN1120   0.0000
    20 C2'         28.7650    18.5730   -13.0490 C.3          1 FMN1120   0.0000
    21 O2'         30.0140    18.7540   -13.7470 O.3          1 FMN1120   0.0000
    22 C3'         27.8750    19.7380   -13.3610 C.3          1 FMN1120   0.0000
    23 O3'         26.5820    19.3070   -12.9400 O.3          1 FMN1120   0.0000
    24 C4'         27.7770    20.1120   -14.8650 C.3          1 FMN1120   0.0000
    25 O4'         26.9360    21.2750   -14.9080 O.3          1 FMN1120   0.0000
    26 C5'         27.0170    19.0990   -15.6620 C.3          1 FMN1120   0.0000
    27 O5'         27.1040    19.5230   -17.0600 O.3          1 FMN1120   0.0000
    28 P           26.0280    18.8870   -18.0370 P.3          1 FMN1120   0.0000
    29 O1P         26.1190    19.6390   -19.4070 O.co2        1 FMN1120   0.0000
    30 O2P         24.6610    18.9920   -17.4000 O.co2        1 FMN1120  -1.0000
    31 O3P         26.4570    17.3900   -18.1810 O.co2        1 FMN1120  -1.0000
    32 H1          34.7331    19.2464   -10.0180 H            1 FMN1120   0.0000
    33 H2          31.4975    13.0970   -10.7095 H            1 FMN1120   0.0000
    34 H7M1        28.1609    11.5915   -11.5178 H            1 FMN1120   0.0000
    35 H7M2        29.6931    11.2637   -11.9778 H            1 FMN1120   0.0000
    36 H7M3        29.3022    11.2797   -10.3923 H            1 FMN1120   0.0000
    37 H8M1        26.4046    14.5522   -12.0921 H            1 FMN1120   0.0000
    38 H8M2        27.0294    13.1904   -12.7416 H            1 FMN1120   0.0000
    39 H8M3        26.5895    13.2177   -11.1692 H            1 FMN1120   0.0000
    40 H9          27.8599    16.2145   -11.6142 H            1 FMN1120   0.0000
    41 H1'1        29.1842    19.3538   -11.1467 H            1 FMN1120   0.0000
    42 H1'2        28.1021    18.1314   -11.1075 H            1 FMN1120   0.0000
    43 H2'         28.3288    17.7377   -13.3838 H            1 FMN1120   0.0000
    44 H13         30.3914    17.8609   -13.9920 H            1 FMN1120   0.0000
    45 H3'         28.1585    20.5358   -12.8290 H            1 FMN1120   0.0000
    46 H15         26.4416    19.5599   -11.9827 H            1 FMN1120   0.0000
    47 H4'         28.6777    20.2927   -15.2601 H            1 FMN1120   0.0000
    48 H17         27.4420    22.0376   -15.3110 H            1 FMN1120   0.0000
    49 H5'1        26.0618    19.0730   -15.3673 H            1 FMN1120   0.0000
    50 H5'2        27.4254    18.1932   -15.5493 H            1 FMN1120   0.0000
@<TRIPOS>BOND
     1    1    2       1
     2    1   18       2
     3    2    3       2
     4    2    4       1
     5    4    5       1
     6    5    6       2
     7    5    7       1
     8    7    8       2
     9    7   18       1
    10    8    9       1
    11    9   10      ar
    12    9   16      ar
    13   10   11      ar
    14   11   12       1
    15   11   13      ar
    16   13   14       1
    17   13   15      ar
    18   15   16      ar
    19   16   17       1
    20   17   18       1
    21   17   19       1
    22   19   20       1
    23   20   21       1
    24   20   22       1
    25   22   23       1
    26   22   24       1
    27   24   25       1
    28   24   26       1
    29   26   27       1
    30   27   28       1
    31   28   29      ar
    32   28   30      ar
    33   28   31      ar
    34    4   32       1
    35   10   33       1
    36   12   34       1
    37   12   35       1
    38   12   36       1
    39   14   37       1
    40   14   38       1
    41   14   39       1
    42   15   40       1
    43   19   41       1
    44   19   42       1
    45   20   43       1
    46   21   44       1
    47   22   45       1
    48   23   46       1
    49   24   47       1
    50   25   48       1
    51   26   49       1
    52   26   50       1
@<TRIPOS>SUBSTRUCTURE
     1 FMN1120     1 GROUP             4 B     FMN     0 **** FMN B1120
