@<TRIPOS>MOLECULE
3x2f_NAI_2_ligand
   71    75     1     0     0
SMALL
NO_CHARGES


@<TRIPOS>ATOM
     1 PA          85.4150   -22.7920    24.2740 P.3          1 NAI501   0.0000
     2 O1A         84.7100   -24.0400    24.6000 O.co2        1 NAI501   0.0000
     3 O2A         86.7020   -22.6710    25.1900 O.co2        1 NAI501  -1.0000
     4 O5B         84.4390   -21.5280    24.5440 O.3          1 NAI501   0.0000
     5 C5B         83.1660   -21.7500    23.9260 C.3          1 NAI501   0.0000
     6 C4B         82.1000   -20.9790    24.7260 C.3          1 NAI501   0.0000
     7 O4B         80.9160   -20.8010    23.9480 O.3          1 NAI501   0.0000
     8 C3B         81.6900   -21.7370    26.0070 C.3          1 NAI501   0.0000
     9 O3B         81.9840   -20.9380    27.1480 O.3          1 NAI501   0.0000
    10 C2B         80.1730   -21.9770    25.8320 C.3          1 NAI501   0.0000
    11 O2B         79.4550   -21.9350    27.0780 O.3          1 NAI501   0.0000
    12 C1B         79.7930   -20.8470    24.8600 C.3          1 NAI501   0.0000
    13 N9A         78.5970   -21.1350    24.0870 N.pl3        1 NAI501   0.0000
    14 C8A         78.2190   -22.3420    23.5490 C.2          1 NAI501   0.0000
    15 N7A         77.0930   -22.2120    22.9110 N.2          1 NAI501   0.0000
    16 C5A         76.6880   -20.9260    23.0030 C.ar         1 NAI501   0.0000
    17 C6A         75.5780   -20.1890    22.5240 C.ar         1 NAI501   0.0000
    18 N6A         74.6050   -20.8090    21.7740 N.pl3        1 NAI501   0.0000
    19 N1A         75.4950   -18.8750    22.8120 N.ar         1 NAI501   0.0000
    20 C2A         76.4320   -18.2540    23.5380 C.ar         1 NAI501   0.0000
    21 N3A         77.4980   -18.9040    24.0110 N.ar         1 NAI501   0.0000
    22 C4A         77.6580   -20.2240    23.7650 C.ar         1 NAI501   0.0000
    23 O3          85.7810   -22.8920    22.6960 O.3          1 NAI501   0.0000
    24 PN          86.8690   -21.8080    22.1230 P.3          1 NAI501   0.0000
    25 O1N         88.3380   -22.3330    22.4530 O.co2        1 NAI501   0.0000
    26 O2N         86.6650   -20.4680    22.7210 O.co2        1 NAI501  -1.0000
    27 O5D         86.7050   -21.7440    20.5510 O.3          1 NAI501   0.0000
    28 C5D         85.3230   -21.6350    20.2170 C.3          1 NAI501   0.0000
    29 C4D         85.1580   -21.7180    18.6930 C.3          1 NAI501   0.0000
    30 O4D         86.0260   -20.7530    18.0120 O.3          1 NAI501   0.0000
    31 C3D         85.5540   -23.0960    18.1130 C.3          1 NAI501   0.0000
    32 O3D         84.7930   -23.2890    16.9160 O.3          1 NAI501   0.0000
    33 C2D         87.0460   -22.9150    17.7960 C.3          1 NAI501   0.0000
    34 O2D         87.5030   -23.9360    16.8890 O.3          1 NAI501   0.0000
    35 C1D         87.0180   -21.4920    17.1940 C.3          1 NAI501   0.0000
    36 N1N         88.3070   -20.7560    17.2720 N.pl3        1 NAI501   0.0000
    37 C2N         88.5880   -19.8570    16.2510 C.2          1 NAI501   0.0000
    38 C3N         89.7370   -19.1130    16.2460 C.2          1 NAI501   0.0000
    39 C7N         89.9520   -18.1770    15.1820 C.2          1 NAI501   0.0000
    40 O7N         91.0820   -17.9060    14.8040 O.2          1 NAI501   0.0000
    41 N7N         88.8940   -17.5560    14.6000 N.am         1 NAI501   0.0000
    42 C4N         90.7670   -19.2470    17.3770 C.3          1 NAI501   0.0000
    43 C5N         90.3540   -20.2520    18.4380 C.2          1 NAI501   0.0000
    44 C6N         89.2010   -20.9350    18.3590 C.2          1 NAI501   0.0000
    45 H5B1        82.9527   -22.7270    23.9323 H            1 NAI501   0.0000
    46 H5B2        83.1857   -21.4192    22.9825 H            1 NAI501   0.0000
    47 H4B         82.4643   -20.0825    24.9781 H            1 NAI501   0.0000
    48 H3B         82.1742   -22.6102    26.0621 H            1 NAI501   0.0000
    49 H5          81.4758   -20.0785    27.0930 H            1 NAI501   0.0000
    50 H2B         80.0237   -22.8616    25.3903 H            1 NAI501   0.0000
    51 H7          79.1545   -20.9984    27.2582 H            1 NAI501   0.0000
    52 H1B         79.6980   -19.9790    25.3473 H            1 NAI501   0.0000
    53 H8A         78.7340   -23.1948    23.6354 H            1 NAI501   0.0000
    54 H6A1        73.8228   -20.2845    21.4378 H            1 NAI501   0.0000
    55 H6A2        74.6801   -21.7841    21.5652 H            1 NAI501   0.0000
    56 H2A         76.3312   -17.2780    23.7312 H            1 NAI501   0.0000
    57 H5D1        84.9691   -20.7586    20.5436 H            1 NAI501   0.0000
    58 H5D2        84.8157   -22.3810    20.6485 H            1 NAI501   0.0000
    59 H4D         84.2058   -21.5251    18.4563 H            1 NAI501   0.0000
    60 H3D         85.4019   -23.8329    18.7717 H            1 NAI501   0.0000
    61 H17         84.6272   -24.2658    16.7803 H            1 NAI501   0.0000
    62 H2D         87.5861   -22.9279    18.6375 H            1 NAI501   0.0000
    63 H19         88.4748   -23.7999    16.6962 H            1 NAI501   0.0000
    64 H1D         86.7092   -21.5330    16.2438 H            1 NAI501   0.0000
    65 H2N         87.9349   -19.7507    15.5012 H            1 NAI501   0.0000
    66 H7N1        89.0440   -16.9030    13.8577 H            1 NAI501   0.0000
    67 H7N2        87.9649   -17.7517    14.9137 H            1 NAI501   0.0000
    68 H4N1        90.8816   -18.3536    17.8114 H            1 NAI501   0.0000
    69 H4N2        91.6378   -19.5398    16.9822 H            1 NAI501   0.0000
    70 H5N         90.9588   -20.4097    19.2186 H            1 NAI501   0.0000
    71 H6N         88.9670   -21.5845    19.0825 H            1 NAI501   0.0000
@<TRIPOS>BOND
     1    1    2      ar
     2    1    3      ar
     3    1    4       1
     4    1   23       1
     5    4    5       1
     6    5    6       1
     7    6    7       1
     8    6    8       1
     9    7   12       1
    10    8    9       1
    11    8   10       1
    12   10   11       1
    13   10   12       1
    14   12   13       1
    15   13   14       1
    16   13   22       1
    17   14   15       2
    18   15   16       1
    19   16   17      ar
    20   16   22      ar
    21   17   18       1
    22   17   19      ar
    23   19   20      ar
    24   20   21      ar
    25   21   22      ar
    26   23   24       1
    27   24   25      ar
    28   24   26      ar
    29   24   27       1
    30   27   28       1
    31   28   29       1
    32   29   30       1
    33   29   31       1
    34   30   35       1
    35   31   32       1
    36   31   33       1
    37   33   34       1
    38   33   35       1
    39   35   36       1
    40   36   37       1
    41   36   44       1
    42   37   38       2
    43   38   39       1
    44   38   42       1
    45   39   40       2
    46   39   41      am
    47   42   43       1
    48   43   44       2
    49   44   71       1
    50    5   45       1
    51    5   46       1
    52    6   47       1
    53    8   48       1
    54    9   49       1
    55   10   50       1
    56   11   51       1
    57   12   52       1
    58   14   53       1
    59   18   54       1
    60   18   55       1
    61   20   56       1
    62   43   70       1
    63   28   57       1
    64   28   58       1
    65   29   59       1
    66   31   60       1
    67   32   61       1
    68   33   62       1
    69   34   63       1
    70   35   64       1
    71   37   65       1
    72   41   66       1
    73   41   67       1
    74   42   68       1
    75   42   69       1
@<TRIPOS>SUBSTRUCTURE
     1 NAI501      1 GROUP             4 B     NAI     0 **** NAI B 501
