@<TRIPOS>MOLECULE
1tj1_FAD_1_ligand
   82    87     1     0     0
SMALL
NO_CHARGES


@<TRIPOS>ATOM
     1 PA          -1.4390    47.5330    45.4370 P.3          1 FAD2001   0.0000
     2 O1A         -1.5440    48.3970    44.2170 O.co2        1 FAD2001   0.0000
     3 O2A         -2.6650    47.0890    46.1440 O.co2        1 FAD2001  -1.0000
     4 O5B         -0.6750    46.2030    45.0670 O.3          1 FAD2001   0.0000
     5 C5B          0.5450    46.4080    44.2530 C.2          1 FAD2001   0.0000
     6 C4B          1.3250    45.1480    43.8830 C.2          1 FAD2001   0.0000
     7 O4B          0.8000    43.9050    43.7530 O.3          1 FAD2001   0.0000
     8 C3B          2.7860    45.1820    43.4190 C.3          1 FAD2001   0.0000
     9 O3B          3.5940    46.0970    44.2250 O.3          1 FAD2001   0.0000
    10 C2B          3.1790    43.6970    43.5140 C.3          1 FAD2001   0.0000
    11 O2B          3.5660    43.3270    44.8230 O.3          1 FAD2001   0.0000
    12 C1B          1.8450    42.9630    43.3080 C.3          1 FAD2001   0.0000
    13 N9A          1.5000    42.6820    41.8920 N.pl3        1 FAD2001   0.0000
    14 C8A          1.4230    43.5610    40.8640 C.2          1 FAD2001   0.0000
    15 N7A          1.0440    42.8920    39.7600 N.2          1 FAD2001   0.0000
    16 C5A          0.8850    41.6120    40.1010 C.ar         1 FAD2001   0.0000
    17 C6A          0.4930    40.4900    39.3780 C.ar         1 FAD2001   0.0000
    18 N6A          0.1810    40.5210    38.0720 N.pl3        1 FAD2001   0.0000
    19 N1A          0.4140    39.3390    40.0660 N.ar         1 FAD2001   0.0000
    20 C2A          0.7260    39.2690    41.4260 C.ar         1 FAD2001   0.0000
    21 N3A          1.1010    40.3130    42.1030 N.ar         1 FAD2001   0.0000
    22 C4A          1.1590    41.4820    41.4560 C.ar         1 FAD2001   0.0000
    23 N1           8.6040    45.2530    48.9600 N.2          1 FAD2001   0.0000
    24 C2           9.6110    44.3350    48.9660 C.2          1 FAD2001   0.0000
    25 O2           9.6560    43.4550    48.0970 O.2          1 FAD2001   0.0000
    26 N3          10.5460    44.3600    49.9940 N.pl3        1 FAD2001   0.0000
    27 C4          10.4810    45.2980    51.0220 C.2          1 FAD2001   0.0000
    28 O4          11.3580    45.2560    51.9000 O.2          1 FAD2001   0.0000
    29 C4X          9.4790    46.2620    50.9700 C.2          1 FAD2001   0.0000
    30 N5           9.3920    47.2660    51.9420 N.2          1 FAD2001   0.0000
    31 C5X          8.2920    48.1110    51.9410 C.ar         1 FAD2001   0.0000
    32 C6           8.1470    49.0500    52.9660 C.ar         1 FAD2001   0.0000
    33 C7           7.0470    49.9190    52.9520 C.ar         1 FAD2001   0.0000
    34 C7M          6.8970    50.9040    54.0880 C.3          1 FAD2001   0.0000
    35 C8           6.1150    49.8680    51.9250 C.ar         1 FAD2001   0.0000
    36 C8M          4.8970    50.7970    51.9570 C.3          1 FAD2001   0.0000
    37 C9           6.2400    48.9250    50.9090 C.ar         1 FAD2001   0.0000
    38 C9A          7.3630    48.0740    50.9060 C.ar         1 FAD2001   0.0000
    39 N10          7.4760    47.1230    49.9020 N.pl3        1 FAD2001   0.0000
    40 C10          8.5260    46.2200    49.9450 C.2          1 FAD2001   0.0000
    41 C1'          6.2930    46.9350    48.9800 C.3          1 FAD2001   0.0000
    42 C2'          6.4650    47.5420    47.5670 C.3          1 FAD2001   0.0000
    43 O2'          7.5110    48.5210    47.5620 O.3          1 FAD2001   0.0000
    44 C3'          5.1830    48.2330    47.1360 C.3          1 FAD2001   0.0000
    45 O3'          5.0810    49.4760    47.8060 O.3          1 FAD2001   0.0000
    46 C4'          3.9240    47.4220    47.4850 C.3          1 FAD2001   0.0000
    47 O4'          3.9770    46.0690    47.0160 O.3          1 FAD2001   0.0000
    48 C5'          2.6290    48.0930    46.9250 C.3          1 FAD2001   0.0000
    49 O5'          1.4850    47.4200    47.4870 O.3          1 FAD2001   0.0000
    50 P            0.1680    48.2720    47.8110 P.3          1 FAD2001   0.0000
    51 O1P         -0.7590    47.5030    48.6660 O.co2        1 FAD2001   0.0000
    52 O2P          0.5710    49.6220    48.2080 O.co2        1 FAD2001  -1.0000
    53 O3P         -0.4350    48.4420    46.2780 O.3          1 FAD2001   0.0000
    54 H5B          0.8408    47.3180    43.9626 H            1 FAD2001   0.0000
    55 H3B          2.8200    45.4701    42.4620 H            1 FAD2001   0.0000
    56 H3           3.2214    47.0222    44.1532 H            1 FAD2001   0.0000
    57 H2B          3.8621    43.4411    42.8300 H            1 FAD2001   0.0000
    58 H5           4.3539    43.8745    45.1050 H            1 FAD2001   0.0000
    59 H1B          1.8171    42.1236    43.8508 H            1 FAD2001   0.0000
    60 H8A          1.6153    44.5409    40.9168 H            1 FAD2001   0.0000
    61 H6A1        -0.0946    39.6815    37.6037 H            1 FAD2001   0.0000
    62 H6A2         0.2243    41.3836    37.5679 H            1 FAD2001   0.0000
    63 H2A          0.6586    38.3875    41.8934 H            1 FAD2001   0.0000
    64 H11         11.2853    43.6866    49.9958 H            1 FAD2001   0.0000
    65 H12          8.8215    49.1015    53.7024 H            1 FAD2001   0.0000
    66 H7M1         6.0740    51.4539    53.9459 H            1 FAD2001   0.0000
    67 H7M2         6.8206    50.4069    54.9523 H            1 FAD2001   0.0000
    68 H7M3         7.6972    51.5030    54.1176 H            1 FAD2001   0.0000
    69 H8M1         4.3310    50.6326    51.1491 H            1 FAD2001   0.0000
    70 H8M2         4.3613    50.6160    52.7818 H            1 FAD2001   0.0000
    71 H8M3         5.2037    51.7488    51.9610 H            1 FAD2001   0.0000
    72 H19          5.5450    48.8527    50.1937 H            1 FAD2001   0.0000
    73 H1'1         5.4958    47.3621    49.4066 H            1 FAD2001   0.0000
    74 H1'2         6.1310    45.9534    48.8788 H            1 FAD2001   0.0000
    75 H2'          6.6862    46.8150    46.9169 H            1 FAD2001   0.0000
    76 H23          8.3712    48.0912    47.8366 H            1 FAD2001   0.0000
    77 H3'          5.2098    48.3917    46.1490 H            1 FAD2001   0.0000
    78 H25          4.5799    50.1238    47.2322 H            1 FAD2001   0.0000
    79 H4'          3.8460    47.3955    48.4816 H            1 FAD2001   0.0000
    80 H27          4.0730    46.0648    46.0206 H            1 FAD2001   0.0000
    81 H5'1         2.6115    48.0127    45.9284 H            1 FAD2001   0.0000
    82 H5'2         2.6117    49.0593    47.1820 H            1 FAD2001   0.0000
@<TRIPOS>BOND
     1    1    2      ar
     2    1    3      ar
     3    1    4       1
     4    1   53       1
     5    4    5       1
     6    5    6       2
     7    6    7       1
     8    6    8       1
     9    7   12       1
    10    8    9       1
    11    8   10       1
    12   10   11       1
    13   10   12       1
    14   12   13       1
    15   13   14       1
    16   13   22       1
    17   14   15       2
    18   15   16       1
    19   16   17      ar
    20   16   22      ar
    21   17   18       1
    22   17   19      ar
    23   19   20      ar
    24   20   21      ar
    25   21   22      ar
    26   23   24       1
    27   23   40       2
    28   24   25       2
    29   24   26       1
    30   26   27       1
    31   27   28       2
    32   27   29       1
    33   29   30       2
    34   29   40       1
    35   30   31       1
    36   31   32      ar
    37   31   38      ar
    38   32   33      ar
    39   33   34       1
    40   33   35      ar
    41   35   36       1
    42   35   37      ar
    43   37   38      ar
    44   38   39       1
    45   39   40       1
    46   39   41       1
    47   41   42       1
    48   42   43       1
    49   42   44       1
    50   44   45       1
    51   44   46       1
    52   46   47       1
    53   46   48       1
    54   48   49       1
    55   49   50       1
    56   50   51      ar
    57   50   52      ar
    58   50   53       1
    59   48   82       1
    60    5   54       1
    61    8   55       1
    62    9   56       1
    63   10   57       1
    64   11   58       1
    65   12   59       1
    66   14   60       1
    67   18   61       1
    68   18   62       1
    69   20   63       1
    70   26   64       1
    71   32   65       1
    72   34   66       1
    73   34   67       1
    74   34   68       1
    75   36   69       1
    76   36   70       1
    77   36   71       1
    78   37   72       1
    79   41   73       1
    80   41   74       1
    81   42   75       1
    82   43   76       1
    83   44   77       1
    84   45   78       1
    85   46   79       1
    86   47   80       1
    87   48   81       1
@<TRIPOS>SUBSTRUCTURE
     1 FAD2001     1 GROUP             4 A     FAD     0 **** FAD A2001
