@<TRIPOS>MOLECULE
3jzi_JZL_1_ligand
   59    62     1     0     0
SMALL
NO_CHARGES


@<TRIPOS>ATOM
     1 N1         -15.1330    -2.0860    -1.8480 N.am         1 JZL466   0.0000
     2 C2         -15.2760    -1.9930    -0.4970 C.2          1 JZL466   0.0000
     3 O3         -16.1540    -2.5870     0.1130 O.2          1 JZL466   0.0000
     4 C4         -14.3240    -1.1100     0.2190 C.ar         1 JZL466   0.0000
     5 C5         -14.5980    -0.8590     1.5810 C.ar         1 JZL466   0.0000
     6 C6         -13.7900    -0.0110     2.3630 C.ar         1 JZL466   0.0000
     7 N7         -14.1360     0.1790     3.7150 N.pl3        1 JZL466   0.0000
     8 C8         -12.6730     0.5530     1.6860 C.ar         1 JZL466   0.0000
     9 N9         -11.6900     1.3960     2.0710 N.pl3        1 JZL466   0.0000
    10 C10        -11.5940     1.9870     3.3740 C.3          1 JZL466   0.0000
    11 C11        -10.7160     1.3160     4.3720 C.3          1 JZL466   0.0000
    12 C12        -10.6120     1.8320     5.8020 C.3          1 JZL466   0.0000
    13 C13        -10.6320     0.6870     6.7860 C.3          1 JZL466   0.0000
    14 C14        -11.4110    -0.4950     6.2780 C.3          1 JZL466   0.0000
    15 C15        -10.6190    -1.4790     5.4190 C.3          1 JZL466   0.0000
    16 C16         -9.6120    -0.9610     4.3690 C.3          1 JZL466   0.0000
    17 C17         -9.5550     0.4880     3.8840 C.3          1 JZL466   0.0000
    18 O18         -8.3060     1.1370     4.2190 O.3          1 JZL466   0.0000
    19 C19        -10.8460     1.6360     1.0130 C.2          1 JZL466   0.0000
    20 N20         -9.7810     2.4690     1.1850 N.pl3        1 JZL466   0.0000
    21 C21         -9.0000     2.9530     0.1020 C.3          1 JZL466   0.0000
    22 C22         -9.6430     4.1030    -0.6160 C.ar         1 JZL466   0.0000
    23 C23        -10.4530     5.0780     0.0580 C.ar         1 JZL466   0.0000
    24 C24        -11.0300     6.1410    -0.6710 C.ar         1 JZL466   0.0000
    25 C25        -10.8070     6.2610    -2.0600 C.ar         1 JZL466   0.0000
    26 C26        -10.0090     5.3020    -2.7340 C.ar         1 JZL466   0.0000
    27 C27         -9.4260     4.2290    -2.0100 C.ar         1 JZL466   0.0000
    28 CL28        -8.4580     3.0750    -2.8710 Cl           1 JZL466   0.0000
    29 N29        -11.2410     0.9590    -0.0370 N.2          1 JZL466   0.0000
    30 C30        -12.3640     0.3050     0.3500 C.ar         1 JZL466   0.0000
    31 C31        -13.1850    -0.5440    -0.4020 C.ar         1 JZL466   0.0000
    32 H1         -14.4014    -1.5839    -2.3091 H            1 JZL466   0.0000
    33 H2         -15.7596    -2.6564    -2.3790 H            1 JZL466   0.0000
    34 H3         -15.3911    -1.2973     2.0040 H            1 JZL466   0.0000
    35 H4         -13.5805     0.7756     4.2942 H            1 JZL466   0.0000
    36 H5         -14.9372    -0.2827     4.0957 H            1 JZL466   0.0000
    37 H6         -12.5167     2.0154     3.7584 H            1 JZL466   0.0000
    38 H7         -11.2536     2.9197     3.2552 H            1 JZL466   0.0000
    39 H8         -11.3289     0.5509     4.5694 H            1 JZL466   0.0000
    40 H9         -11.3845     2.4388     5.9889 H            1 JZL466   0.0000
    41 H10         -9.7567     2.3395     5.9064 H            1 JZL466   0.0000
    42 H11        -11.0488     1.0036     7.6381 H            1 JZL466   0.0000
    43 H12         -9.6907     0.3990     6.9622 H            1 JZL466   0.0000
    44 H13        -12.1729    -0.1502     5.7298 H            1 JZL466   0.0000
    45 H14        -11.7676    -0.9928     7.0686 H            1 JZL466   0.0000
    46 H15        -11.2890    -2.0337     4.9256 H            1 JZL466   0.0000
    47 H16        -10.1040    -2.0604     6.0488 H            1 JZL466   0.0000
    48 H17         -9.7637    -1.5154     3.5507 H            1 JZL466   0.0000
    49 H18         -8.7054    -1.1583     4.7419 H            1 JZL466   0.0000
    50 H19         -9.6128     0.4641     2.8860 H            1 JZL466   0.0000
    51 H20         -7.5427     0.5803     3.8913 H            1 JZL466   0.0000
    52 H21         -9.5392     2.7514     2.1133 H            1 JZL466   0.0000
    53 H22         -8.8621     2.2073    -0.5498 H            1 JZL466   0.0000
    54 H23         -8.1147     3.2536     0.4568 H            1 JZL466   0.0000
    55 H24        -10.6085     5.0045     1.0431 H            1 JZL466   0.0000
    56 H25        -11.6007     6.8136    -0.2000 H            1 JZL466   0.0000
    57 H26        -11.2114     7.0215    -2.5680 H            1 JZL466   0.0000
    58 H27         -9.8569     5.3815    -3.7192 H            1 JZL466   0.0000
    59 H28        -12.9712    -0.7462    -1.3577 H            1 JZL466   0.0000
@<TRIPOS>BOND
     1    1    2      am
     2    2    3       2
     3    2    4       1
     4    4    5      ar
     5    4   31      ar
     6    5    6      ar
     7    6    7       1
     8    6    8      ar
     9    8    9       1
    10    8   30      ar
    11    9   10       1
    12    9   19       1
    13   10   11       1
    14   11   12       1
    15   11   17       1
    16   12   13       1
    17   13   14       1
    18   14   15       1
    19   15   16       1
    20   16   17       1
    21   17   18       1
    22   19   20       1
    23   19   29       2
    24   20   21       1
    25   21   22       1
    26   22   23      ar
    27   22   27      ar
    28   23   24      ar
    29   24   25      ar
    30   25   26      ar
    31   26   27      ar
    32   27   28       1
    33   29   30       1
    34   30   31      ar
    35    1   32       1
    36    1   33       1
    37    5   34       1
    38    7   35       1
    39    7   36       1
    40   10   37       1
    41   10   38       1
    42   11   39       1
    43   12   40       1
    44   12   41       1
    45   13   42       1
    46   13   43       1
    47   14   44       1
    48   14   45       1
    49   15   46       1
    50   15   47       1
    51   16   48       1
    52   16   49       1
    53   17   50       1
    54   18   51       1
    55   20   52       1
    56   21   53       1
    57   21   54       1
    58   23   55       1
    59   24   56       1
    60   25   57       1
    61   26   58       1
    62   31   59       1
@<TRIPOS>SUBSTRUCTURE
     1 JZL466      1 GROUP             4 A     JZL     0 **** JZL A 466
