@<TRIPOS>MOLECULE
3eym_EYK_1_ligand
   26    26     1     0     0
SMALL
NO_CHARGES


@<TRIPOS>ATOM
     1 CAA         60.6080    48.1110    -1.2650 C.3          1 EYK173   0.0000
     2 CAL         59.1090    48.2280    -1.1680 C.3          1 EYK173   0.0000
     3 CAB         58.7080    47.6640     0.1790 C.3          1 EYK173   0.0000
     4 CAC         58.6910    47.3100    -2.3040 C.3          1 EYK173   0.0000
     5 CAK         58.4930    49.6280    -1.2060 C.ar         1 EYK173   0.0000
     6 CAH         59.2090    50.8290    -1.0400 C.ar         1 EYK173   0.0000
     7 CAI         58.5310    52.0810    -1.0720 C.ar         1 EYK173   0.0000
     8 OAD         59.2390    53.2440    -0.9330 O.3          1 EYK173   0.0000
     9 CAF         57.1290    52.1840    -1.2510 C.ar         1 EYK173   0.0000
    10 CAG         56.4260    51.0020    -1.4060 C.ar         1 EYK173   0.0000
    11 CAJ         57.1140    49.7620    -1.3750 C.ar         1 EYK173   0.0000
    12 OAE         56.3890    48.6270    -1.5400 O.3          1 EYK173   0.0000
    13 HAA1        60.9145    48.4746    -2.1447 H            1 EYK173   0.0000
    14 HAA2        61.0316    48.6313    -0.5235 H            1 EYK173   0.0000
    15 HAA3        60.8728    47.1495    -1.1912 H            1 EYK173   0.0000
    16 HAB1        57.7152    47.7235     0.2831 H            1 EYK173   0.0000
    17 HAB2        58.9926    46.7071     0.2378 H            1 EYK173   0.0000
    18 HAB3        59.1514    48.1889     0.9055 H            1 EYK173   0.0000
    19 HAC1        57.6931    47.2864    -2.3635 H            1 EYK173   0.0000
    20 HAC2        59.0683    47.6517    -3.1647 H            1 EYK173   0.0000
    21 HAC3        59.0365    46.3876    -2.1315 H            1 EYK173   0.0000
    22 HAH         60.1986    50.8027    -0.8989 H            1 EYK173   0.0000
    23 HAD         60.2308    53.2138    -0.8092 H            1 EYK173   0.0000
    24 HAF         56.6681    53.0713    -1.2647 H            1 EYK173   0.0000
    25 HAG         55.4352    51.0221    -1.5396 H            1 EYK173   0.0000
    26 HAE         55.3982    48.6802    -1.6641 H            1 EYK173   0.0000
@<TRIPOS>BOND
     1    1    2       1
     2    2    3       1
     3    2    4       1
     4    2    5       1
     5    5    6      ar
     6    5   11      ar
     7    6    7      ar
     8    7    8       1
     9    7    9      ar
    10    9   10      ar
    11   10   11      ar
    12   11   12       1
    13    1   13       1
    14    1   14       1
    15    1   15       1
    16    3   16       1
    17    3   17       1
    18    3   18       1
    19    4   19       1
    20    4   20       1
    21    4   21       1
    22    6   22       1
    23    8   23       1
    24    9   24       1
    25   10   25       1
    26   12   26       1
@<TRIPOS>SUBSTRUCTURE
     1 EYK173      1 GROUP             4 D     EYK     0 **** EYK D 173
