@<TRIPOS>MOLECULE
5e8j_SAH_2_ligand
   46    48     1     0     0
SMALL
NO_CHARGES


@<TRIPOS>ATOM
     1 N          -12.6950    16.9510    41.3300 N.4          1 SAH501   1.0000
     2 CA         -12.5670    16.4830    42.6910 C.3          1 SAH501   0.0000
     3 CB         -11.3330    17.0900    43.3190 C.3          1 SAH501   0.0000
     4 CG         -11.3970    18.6620    43.4010 C.3          1 SAH501   0.0000
     5 SD          -9.8640    19.3200    44.1290 S.3          1 SAH501   0.0000
     6 C          -13.8260    16.8880    43.5040 C.2          1 SAH501   0.0000
     7 O          -14.6660    17.7110    43.0150 O.co2        1 SAH501   0.0000
     8 OXT        -14.0080    16.4180    44.6080 O.co2        1 SAH501  -1.0000
     9 C5'         -8.6960    19.8640    42.7860 C.3          1 SAH501   0.0000
    10 C4'         -8.0010    18.5950    42.1280 C.3          1 SAH501   0.0000
    11 O4'         -7.5370    18.9140    40.9850 O.3          1 SAH501   0.0000
    12 C3'         -6.7750    18.1420    42.9690 C.3          1 SAH501   0.0000
    13 O3'         -6.9960    16.8970    43.4900 O.3          1 SAH501   0.0000
    14 C2'         -5.6040    18.1070    41.9890 C.3          1 SAH501   0.0000
    15 O2'         -4.7560    16.8600    42.2210 O.3          1 SAH501   0.0000
    16 C1'         -6.1680    18.0640    40.8200 C.3          1 SAH501   0.0000
    17 N9          -5.3710    18.6550    39.7650 N.pl3        1 SAH501   0.0000
    18 C8          -4.9150    19.8980    39.7250 C.2          1 SAH501   0.0000
    19 N7          -4.2320    20.0860    38.5960 N.2          1 SAH501   0.0000
    20 C5          -4.2650    18.9370    37.9000 C.ar         1 SAH501   0.0000
    21 C6          -3.7370    18.5350    36.6610 C.ar         1 SAH501   0.0000
    22 N6          -3.0060    19.4380    35.9050 N.pl3        1 SAH501   0.0000
    23 N1          -3.9480    17.3160    36.2420 N.ar         1 SAH501   0.0000
    24 C2          -4.6500    16.4520    36.9630 C.ar         1 SAH501   0.0000
    25 N3          -5.1650    16.8000    38.1450 N.ar         1 SAH501   0.0000
    26 C4          -4.9900    18.0190    38.6290 C.ar         1 SAH501   0.0000
    27 H1         -13.5113    16.5494    40.9148 H            1 SAH501   0.0000
    28 H2         -12.7752    17.9478    41.3264 H            1 SAH501   0.0000
    29 HA         -12.4809    15.4867    42.6906 H            1 SAH501   0.0000
    30 HB1        -10.5366    16.8311    42.7724 H            1 SAH501   0.0000
    31 HB2        -11.2343    16.7259    44.2451 H            1 SAH501   0.0000
    32 HG1        -12.1742    18.9312    43.9697 H            1 SAH501   0.0000
    33 HG2        -11.5120    19.0359    42.4807 H            1 SAH501   0.0000
    34 H5'1        -7.9952    20.4604    43.1774 H            1 SAH501   0.0000
    35 H5'2        -9.2056    20.3636    42.0855 H            1 SAH501   0.0000
    36 H4'         -8.6576    17.8460    42.0397 H            1 SAH501   0.0000
    37 H3'         -6.5950    18.7982    43.7018 H            1 SAH501   0.0000
    38 H12         -7.1420    16.2453    42.7457 H            1 SAH501   0.0000
    39 H2'         -5.0463    18.9322    42.0792 H            1 SAH501   0.0000
    40 H14         -5.3187    16.0444    42.0863 H            1 SAH501   0.0000
    41 H1'         -6.3863    17.1165    40.5863 H            1 SAH501   0.0000
    42 H16         -5.0608    20.5890    40.4330 H            1 SAH501   0.0000
    43 H17         -2.6270    19.1598    35.0224 H            1 SAH501   0.0000
    44 H18         -2.8576    20.3677    36.2422 H            1 SAH501   0.0000
    45 H19         -4.7959    15.5255    36.6161 H            1 SAH501   0.0000
    46 H20        -11.8871    16.6797    40.8069 H            1 SAH501   0.0000
@<TRIPOS>BOND
     1    1    2       1
     2    2    3       1
     3    2    6       1
     4    3    4       1
     5    4    5       1
     6    5    9       1
     7    6    7      ar
     8    6    8      ar
     9    9   10       1
    10   10   11       1
    11   10   12       1
    12   11   16       1
    13   12   13       1
    14   12   14       1
    15   14   15       1
    16   14   16       1
    17   16   17       1
    18   17   18       1
    19   17   26       1
    20   18   19       2
    21   19   20       1
    22   20   21      ar
    23   20   26      ar
    24   21   22       1
    25   21   23      ar
    26   23   24      ar
    27   24   25      ar
    28   25   26      ar
    29    1   27       1
    30    1   28       1
    31    2   29       1
    32    3   30       1
    33    3   31       1
    34    4   32       1
    35    4   33       1
    36    1   46       1
    37    9   34       1
    38    9   35       1
    39   10   36       1
    40   12   37       1
    41   13   38       1
    42   14   39       1
    43   15   40       1
    44   16   41       1
    45   18   42       1
    46   22   43       1
    47   22   44       1
    48   24   45       1
@<TRIPOS>SUBSTRUCTURE
     1 SAH501      1 GROUP             4 B     SAH     0 **** SAH B 501
