@<TRIPOS>MOLECULE
3sxn_COA_3_ligand
   80    82     1     0     0
SMALL
NO_CHARGES


@<TRIPOS>ATOM
     1 N1A         41.5280   -11.2170    55.1370 N.ar         1 COA500   0.0000
     2 C2A         41.8200   -11.7400    56.2970 C.ar         1 COA500   0.0000
     3 N3A         42.0640   -11.0040    57.2970 N.ar         1 COA500   0.0000
     4 C4A         41.9940    -9.7470    57.1020 C.ar         1 COA500   0.0000
     5 C5A         41.6890    -9.0470    55.8620 C.ar         1 COA500   0.0000
     6 C6A         41.4320    -9.9400    54.8020 C.ar         1 COA500   0.0000
     7 N6A         41.1250    -9.5740    53.5930 N.pl3        1 COA500   0.0000
     8 N7A         41.7170    -7.7310    56.0200 N.2          1 COA500   0.0000
     9 C8A         42.0270    -7.6590    57.3050 C.2          1 COA500   0.0000
    10 N9A         42.2100    -8.8610    57.9410 N.pl3        1 COA500   0.0000
    11 C1B         42.5490    -9.1700    59.3690 C.3          1 COA500   0.0000
    12 C2B         41.4760    -9.8630    60.1920 C.3          1 COA500   0.0000
    13 O2B         40.3330    -9.0960    60.3360 O.3          1 COA500   0.0000
    14 C3B         42.2150    -9.9310    61.4960 C.3          1 COA500   0.0000
    15 O3B         42.2540    -8.6530    62.0830 O.3          1 COA500   0.0000
    16 P3B         42.0880    -8.4170    63.6090 P.3          1 COA500   0.0000
    17 O7A         43.1610    -9.1670    64.2410 O.co2        1 COA500   0.0000
    18 O8A         42.1810    -6.9820    63.7060 O.co2        1 COA500  -1.0000
    19 O9A         40.7520    -8.8040    63.9040 O.co2        1 COA500  -1.0000
    20 C4B         43.5910   -10.3260    60.9980 C.3          1 COA500   0.0000
    21 O4B         43.6900    -9.9380    59.6540 O.3          1 COA500   0.0000
    22 C5B         43.7710   -11.8300    61.1140 C.3          1 COA500   0.0000
    23 O5B         42.7300   -12.5460    60.5070 O.3          1 COA500   0.0000
    24 P1A         42.6030   -14.0860    60.4290 P.3          1 COA500   0.0000
    25 O1A         43.8000   -14.6000    61.0070 O.co2        1 COA500   0.0000
    26 O2A         41.3860   -14.5020    61.0400 O.co2        1 COA500  -1.0000
    27 O3A         42.4930   -14.3700    58.8900 O.3          1 COA500   0.0000
    28 P2A         41.7160   -15.5640    58.2610 P.3          1 COA500   0.0000
    29 O4A         40.3950   -15.1920    57.9020 O.co2        1 COA500   0.0000
    30 O5A         42.0270   -16.7470    58.9590 O.co2        1 COA500  -1.0000
    31 O6A         42.4360   -15.8040    56.9090 O.3          1 COA500   0.0000
    32 CBP         42.7280   -15.1380    54.5070 C.3          1 COA500   0.0000
    33 CCP         42.4920   -14.7850    55.9720 C.3          1 COA500   0.0000
    34 CDP         43.2640   -13.9280    53.8160 C.3          1 COA500   0.0000
    35 CEP         43.7390   -16.2660    54.3890 C.3          1 COA500   0.0000
    36 CAP         41.4360   -15.4940    53.8620 C.3          1 COA500   0.0000
    37 OAP         40.5990   -14.3720    53.9160 O.3          1 COA500   0.0000
    38 C9P         41.6130   -16.1160    52.4880 C.2          1 COA500   0.0000
    39 O9P         41.8880   -17.2550    52.4000 O.2          1 COA500   0.0000
    40 N8P         41.3770   -15.3550    51.4350 N.am         1 COA500   0.0000
    41 C7P         41.8190   -15.5730    50.1080 C.3          1 COA500   0.0000
    42 C6P         42.9710   -14.5900    49.7500 C.3          1 COA500   0.0000
    43 C5P         44.2600   -15.0960    50.2780 C.2          1 COA500   0.0000
    44 O5P         44.4050   -16.1830    50.5690 O.2          1 COA500   0.0000
    45 N4P         45.3030   -14.4020    50.4150 N.am         1 COA500   0.0000
    46 C3P         46.1000   -14.5000    49.3150 C.3          1 COA500   0.0000
    47 C2P         47.4540   -14.6570    49.7970 C.3          1 COA500   0.0000
    48 S1P         47.9280   -13.0910    49.2420 S.3          1 COA500   0.0000
    49 H2A         41.8512   -12.7345    56.3965 H            1 COA500   0.0000
    50 H6A1        41.0590    -8.6023    53.3663 H            1 COA500   0.0000
    51 H6A2        40.9548   -10.2642    52.8897 H            1 COA500   0.0000
    52 H8A         42.1217    -6.7849    57.7815 H            1 COA500   0.0000
    53 H1B         42.7002    -8.2852    59.8098 H            1 COA500   0.0000
    54 H2B         41.2679   -10.7743    59.8366 H            1 COA500   0.0000
    55 H7          40.5778    -8.1266    60.3193 H            1 COA500   0.0000
    56 H3B         41.8273   -10.6162    62.1126 H            1 COA500   0.0000
    57 H4B         44.2922    -9.8592    61.5369 H            1 COA500   0.0000
    58 H5B1        43.8054   -12.0746    62.0830 H            1 COA500   0.0000
    59 H5B2        44.6329   -12.0842    60.6752 H            1 COA500   0.0000
    60 HCP1        43.2329   -14.1731    56.2488 H            1 COA500   0.0000
    61 HCP2        41.6209   -14.2961    56.0187 H            1 COA500   0.0000
    62 HDP1        43.4259   -14.1389    52.8520 H            1 COA500   0.0000
    63 HDP2        42.6014   -13.1824    53.8874 H            1 COA500   0.0000
    64 HDP3        44.1238   -13.6521    54.2458 H            1 COA500   0.0000
    65 HEP1        43.8826   -16.4854    53.4240 H            1 COA500   0.0000
    66 HEP2        44.6056   -15.9811    54.7986 H            1 COA500   0.0000
    67 HEP3        43.3942   -17.0740    54.8668 H            1 COA500   0.0000
    68 HAP         41.0129   -16.1929    54.4386 H            1 COA500   0.0000
    69 H21         39.7223   -14.5892    53.4868 H            1 COA500   0.0000
    70 H8P         40.8260   -14.5354    51.5921 H            1 COA500   0.0000
    71 H7P1        41.0554   -15.4285    49.4787 H            1 COA500   0.0000
    72 H7P2        42.1493   -16.5129    50.0212 H            1 COA500   0.0000
    73 H6P1        42.7781   -13.6950    50.1521 H            1 COA500   0.0000
    74 H6P2        43.0331   -14.5024    48.7558 H            1 COA500   0.0000
    75 H4P         45.5167   -13.8530    51.2230 H            1 COA500   0.0000
    76 H3P1        46.0254   -13.6714    48.7602 H            1 COA500   0.0000
    77 H3P2        45.8350   -15.2932    48.7667 H            1 COA500   0.0000
    78 H2P1        47.9501   -15.4032    49.3530 H            1 COA500   0.0000
    79 H2P2        47.5130   -14.7617    50.7897 H            1 COA500   0.0000
    80 H1P         48.6734   -13.1829    48.5817 H            1 COA500   0.0000
@<TRIPOS>BOND
     1    1    2      ar
     2    1    6      ar
     3    2    3      ar
     4    3    4      ar
     5    4    5      ar
     6    4   10       1
     7    5    6      ar
     8    5    8       1
     9    6    7       1
    10    8    9       2
    11    9   10       1
    12   10   11       1
    13   11   12       1
    14   11   21       1
    15   12   13       1
    16   12   14       1
    17   14   15       1
    18   14   20       1
    19   15   16       1
    20   16   17      ar
    21   16   18      ar
    22   16   19      ar
    23   20   21       1
    24   20   22       1
    25   22   23       1
    26   23   24       1
    27   24   25      ar
    28   24   26      ar
    29   24   27       1
    30   27   28       1
    31   28   29      ar
    32   28   30      ar
    33   28   31       1
    34   31   33       1
    35   32   33       1
    36   32   34       1
    37   32   35       1
    38   32   36       1
    39   36   37       1
    40   36   38       1
    41   38   39       2
    42   38   40      am
    43   40   41       1
    44   41   42       1
    45   42   43       1
    46   43   44       2
    47   43   45      am
    48   45   46       1
    49   46   47       1
    50   47   48       1
    51    2   49       1
    52    7   50       1
    53    7   51       1
    54    9   52       1
    55   11   53       1
    56   12   54       1
    57   13   55       1
    58   14   56       1
    59   48   80       1
    60   47   79       1
    61   20   57       1
    62   22   58       1
    63   22   59       1
    64   47   78       1
    65   46   77       1
    66   33   60       1
    67   33   61       1
    68   34   62       1
    69   34   63       1
    70   34   64       1
    71   35   65       1
    72   35   66       1
    73   35   67       1
    74   36   68       1
    75   37   69       1
    76   40   70       1
    77   41   71       1
    78   41   72       1
    79   42   73       1
    80   42   74       1
    81   45   75       1
    82   46   76       1
@<TRIPOS>SUBSTRUCTURE
     1 COA500      1 GROUP             4 C     COA     0 **** COA C 500
