@<TRIPOS>MOLECULE
./coach420/3gdl/ligand.pdb
 41 41 0 0 0
SMALL
GASTEIGER

@<TRIPOS>ATOM
      1  N1        14.2200   73.3020   24.4860 N.ar  301  UP6301     -0.1721
      2  C2        14.7430   74.5670   24.7810 C.ar  301  UP6301      0.3706
      3  N3        15.9430   74.5330   25.4690 N.ar  301  UP6301     -0.1505
      4  C4        16.5680   73.3840   25.9590 C.ar  301  UP6301      0.3041
      5  C5        15.9950   72.1230   25.5610 C.ar  301  UP6301      0.1827
      6  N6        14.8680   72.1070   24.8540 N.ar  301  UP6301     -0.1568
      7  O2        14.1980   75.5850   24.4930 O.2   301  UP6301     -0.2428
      8  O4        17.5300   73.5220   26.6760 O.2   301  UP6301     -0.2633
      9  C1'       12.9510   73.1550   23.8080 C.3   301  UP6301      0.2593
     10  C2'       12.8370   72.1390   22.6670 C.3   301  UP6301      0.2352
     11  C3'       11.4310   71.6200   22.8320 C.3   301  UP6301      0.2161
     12  C4'       11.1970   71.7060   24.3390 C.3   301  UP6301      0.1803
     13  O2'       13.0160   72.7630   21.3850 O.3   301  UP6301     -0.2154
     14  O3'       10.4940   72.4480   22.1580 O.3   301  UP6301     -0.2175
     15  O4'       11.9760   72.8190   24.7860 O.3   301  UP6301     -0.3296
     16  C5'       11.5750   70.4820   25.1630 C.3   301  UP6301      0.1859
     17  O5'       10.6850   69.4740   24.7290 O.3   301  UP6301     -0.2675
     18  P         10.6660   67.9690   25.3460 P.3   301  UP6301      0.5327
     19  O1P       12.0300   67.3470   25.3000 O.3   301  UP6301     -0.1145
     20  O2P        9.6450   67.3000   24.4690 O.2   301  UP6301     -0.2224
     21  O3P       10.0840   68.1170   26.8050 O.3   301  UP6301     -0.1145
     22  C2        25.9210   85.0970    8.7410 C.2   301  UP6301      0.3274
     23  N3        26.9170   85.1510    9.7010 N.am  301  UP6301     -0.1318
     24  C4        27.6110   86.3030   10.0830 C.2   301  UP6301      0.2929
     25  C5        27.0520   87.5560    9.6490 C.2   301  UP6301      0.1818
     26  N6        26.0420   87.5600    8.7830 N.2   301  UP6301     -0.1413
     27  O2        25.5060   84.0710    8.3030 O.2   301  UP6301     -0.2628
     28  O4        28.6230   86.1740   10.7360 O.2   301  UP6301     -0.2661
     29  C1'       24.3890   86.4870    7.3720 C.3   301  UP6301      0.1777
     30  C2'       23.2740   87.5000    7.6590 C.3   301  UP6301      0.2140
     31  C3'       22.9350   88.0070    6.2770 C.3   301  UP6301      0.2140
     32  C4'       24.2640   87.9230    5.5320 C.3   301  UP6301      0.1782
     33  O2'       22.1450   86.8640    8.2840 O.3   301  UP6301     -0.2176
     34  O3'       21.9830   87.1650    5.6410 O.3   301  UP6301     -0.2176
     35  O4'       24.9550   86.8120    6.1100 O.3   301  UP6301     -0.3482
     36  C5'       25.1710   89.1500    5.5970 C.3   301  UP6301      0.1858
     37  O5'       24.4790   90.1360    4.8610 O.3   301  UP6301     -0.2675
     38  P         25.0360   91.6480    4.6470 P.3   301  UP6301      0.5327
     39  O1P       25.4430   92.2600    5.9590 O.3   301  UP6301     -0.1145
     40  O2P       23.8690   92.3100    3.9950 O.3   301  UP6301     -0.1145
     41  O3P       26.2150   91.5240    3.6150 O.2   301  UP6301     -0.2224
@<TRIPOS>BOND
     1     1     9    1
     2     1     2   ar
     3     1     6   ar
     4     2     7    2
     5     2     3   ar
     6     3     4   ar
     7     4     5   ar
     8     4     8    2
     9     5     6   ar
    10     9    10    1
    11     9    15    1
    12    10    13    1
    13    10    11    1
    14    11    14    1
    15    11    12    1
    16    12    15    1
    17    12    16    1
    18    16    17    1
    19    17    18    1
    20    18    20    2
    21    18    19    1
    22    18    21    1
    23    22    27    2
    24    22    23   am
    25    23    24   am
    26    24    25    1
    27    24    28    2
    28    25    26    2
    29    29    35    1
    30    29    30    1
    31    30    31    1
    32    30    33    1
    33    31    32    1
    34    31    34    1
    35    32    36    1
    36    32    35    1
    37    36    37    1
    38    37    38    1
    39    38    41    2
    40    38    40    1
    41    38    39    1
