@<TRIPOS>MOLECULE
1sm4_FAD_2_ligand
   80    85     1     0     0
SMALL
NO_CHARGES


@<TRIPOS>ATOM
     1 PA          30.5620    90.5390    90.5650 P.3          1 FAD1364   0.0000
     2 O1A         31.9010    90.9480    89.6900 O.co2        1 FAD1364   0.0000
     3 O2A         30.5940    89.2660    91.2250 O.co2        1 FAD1364  -1.0000
     4 O5B         29.3480    91.2820    89.9810 O.3          1 FAD1364   0.0000
     5 C5B         29.4030    91.8930    88.7440 C.3          1 FAD1364   0.0000
     6 C4B         28.1770    91.8370    87.9140 C.3          1 FAD1364   0.0000
     7 O4B         27.0830    92.1180    88.7270 O.3          1 FAD1364   0.0000
     8 C3B         27.9780    92.9060    86.8450 C.3          1 FAD1364   0.0000
     9 O3B         28.9230    92.8970    85.8330 O.3          1 FAD1364   0.0000
    10 C2B         26.5660    92.5320    86.4740 C.3          1 FAD1364   0.0000
    11 O2B         26.4650    91.3470    85.6900 O.3          1 FAD1364   0.0000
    12 C1B         25.9970    92.3200    87.8330 C.3          1 FAD1364   0.0000
    13 N9A         25.1350    93.3220    88.4070 N.pl3        1 FAD1364   0.0000
    14 C8A         25.4140    94.4500    89.1670 C.2          1 FAD1364   0.0000
    15 N7A         24.3110    95.1050    89.5420 N.2          1 FAD1364   0.0000
    16 C5A         23.2940    94.3050    88.9970 C.ar         1 FAD1364   0.0000
    17 C6A         21.8800    94.4290    89.0040 C.ar         1 FAD1364   0.0000
    18 N6A         21.2510    95.4150    89.7010 N.pl3        1 FAD1364   0.0000
    19 N1A         21.1440    93.4900    88.3380 N.ar         1 FAD1364   0.0000
    20 C2A         21.7840    92.4780    87.6240 C.ar         1 FAD1364   0.0000
    21 N3A         23.1040    92.2840    87.5590 N.ar         1 FAD1364   0.0000
    22 C4A         23.8220    93.2670    88.2730 C.ar         1 FAD1364   0.0000
    23 N1          33.7280    99.7700    93.5140 N.2          1 FAD1364   0.0000
    24 C2          33.5860   100.3150    94.7590 C.2          1 FAD1364   0.0000
    25 O2          32.6690    99.9500    95.5540 O.2          1 FAD1364   0.0000
    26 N3          34.4740   101.2810    95.2220 N.pl3        1 FAD1364   0.0000
    27 C4          35.5340   101.7880    94.4560 C.2          1 FAD1364   0.0000
    28 O4          36.2950   102.6550    94.9450 O.2          1 FAD1364   0.0000
    29 C4X         35.6730   101.2430    93.1470 C.2          1 FAD1364   0.0000
    30 N5          36.7260   101.7130    92.3260 N.2          1 FAD1364   0.0000
    31 C5X         36.8720   101.1440    91.0660 C.ar         1 FAD1364   0.0000
    32 C6          37.9210   101.6080    90.2140 C.ar         1 FAD1364   0.0000
    33 C7          38.1260   101.0920    88.9300 C.ar         1 FAD1364   0.0000
    34 C7M         39.2920   101.6430    88.1040 C.3          1 FAD1364   0.0000
    35 C8          37.2610   100.0890    88.4240 C.ar         1 FAD1364   0.0000
    36 C8M         37.3990    99.4730    87.0480 C.3          1 FAD1364   0.0000
    37 C9          36.2080    99.6180    89.2740 C.ar         1 FAD1364   0.0000
    38 C9A         35.9810   100.1110    90.5600 C.ar         1 FAD1364   0.0000
    39 N10         34.9520    99.6250    91.4110 N.pl3        1 FAD1364   0.0000
    40 C10         34.7500   100.2330    92.7380 C.2          1 FAD1364   0.0000
    41 C1'         33.9620    98.5950    91.0750 C.3          1 FAD1364   0.0000
    42 C2'         34.4340    97.2640    91.5060 C.3          1 FAD1364   0.0000
    43 O2'         35.7760    96.9620    90.8370 O.3          1 FAD1364   0.0000
    44 C3'         33.4690    96.3080    91.2720 C.2          1 FAD1364   0.0000
    45 O3'         33.0320    95.9920    90.0240 O.2          1 FAD1364   0.0000
    46 C4'         32.6770    95.6060    92.3740 C.2          1 FAD1364   0.0000
    47 O4'         32.9490    95.9140    93.7430 O.2          1 FAD1364   0.0000
    48 C5'         31.5900    94.7200    91.9270 C.3          1 FAD1364   0.0000
    49 O5'         32.6320    93.5250    91.8380 O.3          1 FAD1364   0.0000
    50 P           31.8850    92.2560    92.5790 P.3          1 FAD1364   0.0000
    51 O1P         32.9910    91.2100    92.6210 O.co2        1 FAD1364   0.0000
    52 O2P         30.9840    92.7760    93.7890 O.co2        1 FAD1364  -1.0000
    53 O3P         30.7630    91.2960    91.9170 O.3          1 FAD1364   0.0000
    54 H5B1        30.1393    91.4589    88.2250 H            1 FAD1364   0.0000
    55 H5B2        29.6235    92.8570    88.8927 H            1 FAD1364   0.0000
    56 H4B         28.0785    90.9274    87.5105 H            1 FAD1364   0.0000
    57 H3B         27.9739    93.8064    87.2801 H            1 FAD1364   0.0000
    58 H5          28.7183    93.6255    85.1793 H            1 FAD1364   0.0000
    59 H2B         26.1091    93.2953    86.0172 H            1 FAD1364   0.0000
    60 H7          25.5036    91.1643    85.4844 H            1 FAD1364   0.0000
    61 H1B         25.4771    91.4663    87.8042 H            1 FAD1364   0.0000
    62 H8A         26.3400    94.7408    89.4077 H            1 FAD1364   0.0000
    63 H6A1        20.2531    95.4782    89.6878 H            1 FAD1364   0.0000
    64 H6A2        21.7869    96.0761    90.2262 H            1 FAD1364   0.0000
    65 H2A         21.2039    91.8414    87.1159 H            1 FAD1364   0.0000
    66 H13         34.3499   101.6324    96.1500 H            1 FAD1364   0.0000
    67 H14         38.5304   102.3273    90.5475 H            1 FAD1364   0.0000
    68 H7M1        39.3164   101.1854    87.2152 H            1 FAD1364   0.0000
    69 H7M2        39.1698   102.6263    87.9695 H            1 FAD1364   0.0000
    70 H7M3        40.1512   101.4770    88.5880 H            1 FAD1364   0.0000
    71 H8M1        36.6795    98.7916    86.9142 H            1 FAD1364   0.0000
    72 H8M2        37.3151   100.1872    86.3531 H            1 FAD1364   0.0000
    73 H8M3        38.2936    99.0333    86.9678 H            1 FAD1364   0.0000
    74 H21         35.6048    98.8993    88.9282 H            1 FAD1364   0.0000
    75 H1'1        33.8170    98.5883    90.0856 H            1 FAD1364   0.0000
    76 H1'2        33.1000    98.8039    91.5368 H            1 FAD1364   0.0000
    77 H2'         34.5893    97.3025    92.4931 H            1 FAD1364   0.0000
    78 H25         36.4447    97.6564    91.1028 H            1 FAD1364   0.0000
    79 H5'1        31.1838    94.9776    91.0503 H            1 FAD1364   0.0000
    80 H5'2        30.8657    94.5845    92.6030 H            1 FAD1364   0.0000
@<TRIPOS>BOND
     1    1    2      ar
     2    1    3      ar
     3    1    4       1
     4    1   53       1
     5    4    5       1
     6    5    6       1
     7    6    7       1
     8    6    8       1
     9    7   12       1
    10    8    9       1
    11    8   10       1
    12   10   11       1
    13   10   12       1
    14   12   13       1
    15   13   14       1
    16   13   22       1
    17   14   15       2
    18   15   16       1
    19   16   17      ar
    20   16   22      ar
    21   17   18       1
    22   17   19      ar
    23   19   20      ar
    24   20   21      ar
    25   21   22      ar
    26   23   24       1
    27   23   40       2
    28   24   25       2
    29   24   26       1
    30   26   27       1
    31   27   28       2
    32   27   29       1
    33   29   30       2
    34   29   40       1
    35   30   31       1
    36   31   32      ar
    37   31   38      ar
    38   32   33      ar
    39   33   34       1
    40   33   35      ar
    41   35   36       1
    42   35   37      ar
    43   37   38      ar
    44   38   39       1
    45   39   40       1
    46   39   41       1
    47   41   42       1
    48   42   43       1
    49   42   44       1
    50   44   45       2
    51   44   46       1
    52   46   47       2
    53   46   48       1
    54   48   49       1
    55   49   50       1
    56   50   51      ar
    57   50   52      ar
    58   50   53       1
    59   48   80       1
    60    5   54       1
    61    5   55       1
    62    6   56       1
    63    8   57       1
    64    9   58       1
    65   10   59       1
    66   11   60       1
    67   12   61       1
    68   14   62       1
    69   18   63       1
    70   18   64       1
    71   20   65       1
    72   26   66       1
    73   32   67       1
    74   34   68       1
    75   34   69       1
    76   34   70       1
    77   36   71       1
    78   36   72       1
    79   36   73       1
    80   37   74       1
    81   41   75       1
    82   41   76       1
    83   42   77       1
    84   43   78       1
    85   48   79       1
@<TRIPOS>SUBSTRUCTURE
     1 FAD1364     1 GROUP             4 B     FAD     0 **** FAD B1364
