@<TRIPOS>MOLECULE
4idt_T28_2_ligand
   33    36     1     0     0
SMALL
NO_CHARGES


@<TRIPOS>ATOM
     1 BR1         77.7460    50.1700   138.1610 Br           1 T28701   0.0000
     2 C12         76.8500    49.0340   136.9380 C.ar         1 T28701   0.0000
     3 C6          76.8000    47.6490   137.1250 C.ar         1 T28701   0.0000
     4 C2          76.1280    46.8470   136.1980 C.ar         1 T28701   0.0000
     5 C5          75.5100    47.4250   135.0990 C.ar         1 T28701   0.0000
     6 C11         75.5620    48.8060   134.9190 C.ar         1 T28701   0.0000
     7 C17         76.2250    49.6070   135.8360 C.ar         1 T28701   0.0000
     8 C1          75.9290    45.4570   136.1420 C.2          1 T28701   0.0000
     9 C4          75.1790    45.2390   134.9790 C.2          1 T28701   0.0000
    10 N9          74.9410    46.4320   134.3810 N.pl3        1 T28701   0.0000
    11 C3          76.4390    44.4710   137.1640 C.ar         1 T28701   0.0000
    12 N8          77.1730    45.0010   138.1700 N.ar         1 T28701   0.0000
    13 C15         77.6970    44.2590   139.1700 C.ar         1 T28701   0.0000
    14 N20         78.4220    44.8610   140.1410 N.pl3        1 T28701   0.0000
    15 N19         77.4960    42.9290   139.2010 N.ar         1 T28701   0.0000
    16 C13         76.7800    42.3460   138.2340 C.ar         1 T28701   0.0000
    17 C7          76.2220    43.0900   137.1900 C.ar         1 T28701   0.0000
    18 C14         75.4390    42.3040   136.1530 C.3          1 T28701   0.0000
    19 C16         74.2450    43.0770   135.6260 C.3          1 T28701   0.0000
    20 C10         74.6750    43.9250   134.4420 C.3          1 T28701   0.0000
    21 H1          77.2435    47.2337   137.9192 H            1 T28701   0.0000
    22 H2          75.1189    49.2212   134.1245 H            1 T28701   0.0000
    23 H3          76.2538    50.5979   135.7047 H            1 T28701   0.0000
    24 H4          74.4222    46.5582   133.5355 H            1 T28701   0.0000
    25 H5          78.8123    44.3169   140.8837 H            1 T28701   0.0000
    26 H6          78.5675    45.8500   140.1159 H            1 T28701   0.0000
    27 H7          76.6405    41.3561   138.2580 H            1 T28701   0.0000
    28 H8          75.1140    41.4555   136.5706 H            1 T28701   0.0000
    29 H9          76.0455    42.0880   135.3878 H            1 T28701   0.0000
    30 H10         73.8862    43.6691   136.3475 H            1 T28701   0.0000
    31 H11         73.5341    42.4360   135.3365 H            1 T28701   0.0000
    32 H12         75.4034    43.4613   133.9376 H            1 T28701   0.0000
    33 H13         73.8963    44.0815   133.8345 H            1 T28701   0.0000
@<TRIPOS>BOND
     1    1    2       1
     2    2    3      ar
     3    2    7      ar
     4    3    4      ar
     5    4    5      ar
     6    4    8       1
     7    5    6      ar
     8    5   10       1
     9    6    7      ar
    10    8    9       2
    11    8   11       1
    12    9   10       1
    13    9   20       1
    14   11   12      ar
    15   11   17      ar
    16   12   13      ar
    17   13   14       1
    18   13   15      ar
    19   15   16      ar
    20   16   17      ar
    21   17   18       1
    22   18   19       1
    23   19   20       1
    24    3   21       1
    25    6   22       1
    26    7   23       1
    27   10   24       1
    28   14   25       1
    29   14   26       1
    30   16   27       1
    31   18   28       1
    32   18   29       1
    33   19   30       1
    34   19   31       1
    35   20   32       1
    36   20   33       1
@<TRIPOS>SUBSTRUCTURE
     1 T28701      1 GROUP             4 B     T28     0 **** T28 B 701
