@<TRIPOS>MOLECULE
1yli_COA_1_ligand
   80    82     1     0     0
SMALL
NO_CHARGES


@<TRIPOS>ATOM
     1 N1A        -24.2660   -20.0650    14.2220 N.ar         1 COA157   0.0000
     2 C2A        -23.7730   -21.3390    14.0800 C.ar         1 COA157   0.0000
     3 N3A        -24.3340   -22.1840    13.1690 N.ar         1 COA157   0.0000
     4 C4A        -25.3490   -21.7340    12.4010 C.ar         1 COA157   0.0000
     5 C5A        -25.8580   -20.4560    12.5460 C.ar         1 COA157   0.0000
     6 C6A        -25.2930   -19.6000    13.4650 C.ar         1 COA157   0.0000
     7 N6A        -25.8070   -18.4080    13.7310 N.pl3        1 COA157   0.0000
     8 N7A        -26.8800   -20.3020    11.6940 N.2          1 COA157   0.0000
     9 C8A        -27.0100   -21.4580    10.9980 C.2          1 COA157   0.0000
    10 N9A        -26.0730   -22.3550    11.4390 N.pl3        1 COA157   0.0000
    11 C1B        -25.8480   -23.7290    10.9540 C.3          1 COA157   0.0000
    12 C2B        -27.0940   -24.5970    11.0190 C.3          1 COA157   0.0000
    13 O2B        -27.3800   -25.1060    12.3020 O.3          1 COA157   0.0000
    14 C3B        -26.7150   -25.6670    10.0140 C.3          1 COA157   0.0000
    15 O3B        -25.7720   -26.5520    10.5820 O.3          1 COA157   0.0000
    16 P3B        -25.6030   -28.0860    10.1400 P.3          1 COA157   0.0000
    17 O7A        -26.6880   -28.8340    10.8990 O.co2        1 COA157   0.0000
    18 O8A        -24.2670   -28.6330    10.5170 O.co2        1 COA157  -1.0000
    19 O9A        -25.9000   -28.2820     8.6760 O.co2        1 COA157  -1.0000
    20 C4B        -25.9690   -24.8660     8.9560 C.3          1 COA157   0.0000
    21 O4B        -25.5580   -23.6850     9.5890 O.3          1 COA157   0.0000
    22 C5B        -26.8450   -24.5650     7.7420 C.3          1 COA157   0.0000
    23 O5B        -28.0780   -24.0490     8.2100 O.3          1 COA157   0.0000
    24 P1A        -29.2930   -23.9790     7.1870 P.3          1 COA157   0.0000
    25 O1A        -30.5930   -23.9710     7.9530 O.co2        1 COA157   0.0000
    26 O2A        -29.1850   -25.0890     6.1690 O.co2        1 COA157  -1.0000
    27 O3A        -29.0560   -22.6600     6.2840 O.3          1 COA157   0.0000
    28 P2A        -29.5630   -21.2220     6.7230 P.3          1 COA157   0.0000
    29 O4A        -29.5520   -21.3090     8.2350 O.co2        1 COA157   0.0000
    30 O5A        -30.9230   -20.8780     6.1540 O.co2        1 COA157  -1.0000
    31 O6A        -28.4020   -20.2880     6.1230 O.3          1 COA157   0.0000
    32 CBP        -26.2210   -19.6030     5.5040 C.3          1 COA157   0.0000
    33 CCP        -27.0330   -20.4870     6.4340 C.3          1 COA157   0.0000
    34 CDP        -24.7780   -19.5620     6.0450 C.3          1 COA157   0.0000
    35 CEP        -26.3010   -20.2850     4.1410 C.3          1 COA157   0.0000
    36 CAP        -26.8250   -18.1780     5.4730 C.3          1 COA157   0.0000
    37 OAP        -26.9560   -17.7800     6.8180 O.3          1 COA157   0.0000
    38 C9P        -25.9170   -17.2140     4.7390 C.2          1 COA157   0.0000
    39 O9P        -25.7890   -17.3300     3.3370 O.2          1 COA157   0.0000
    40 N8P        -25.2380   -16.3100     5.4560 N.am         1 COA157   0.0000
    41 C7P        -24.2100   -15.4350     4.8890 C.3          1 COA157   0.0000
    42 C6P        -22.8920   -16.1780     4.7540 C.3          1 COA157   0.0000
    43 C5P        -21.8430   -15.3030     4.1190 C.2          1 COA157   0.0000
    44 O5P        -21.9040   -15.0540     2.9060 O.2          1 COA157   0.0000
    45 N4P        -20.8640   -14.8970     4.9360 N.am         1 COA157   0.0000
    46 C3P        -19.7120   -14.1500     4.4730 C.3          1 COA157   0.0000
    47 C2P        -19.6500   -12.7810     5.1220 C.3          1 COA157   0.0000
    48 S1P        -21.0460   -11.7690     4.6070 S.3          1 COA157   0.0000
    49 H2A        -23.0054   -21.6457    14.6428 H            1 COA157   0.0000
    50 H6A1       -26.5635   -18.0555    13.1801 H            1 COA157   0.0000
    51 H6A2       -25.4384   -17.8610    14.4826 H            1 COA157   0.0000
    52 H8A        -27.6824   -21.6288    10.2778 H            1 COA157   0.0000
    53 H1B        -25.0973   -24.1579    11.4566 H            1 COA157   0.0000
    54 H2B        -27.8805   -24.0811    10.6795 H            1 COA157   0.0000
    55 H7         -26.6860   -24.7893    12.9486 H            1 COA157   0.0000
    56 H3B        -27.5120   -26.1433     9.6426 H            1 COA157   0.0000
    57 H4B        -25.1631   -25.3795     8.6615 H            1 COA157   0.0000
    58 H5B1       -27.0038   -25.4040     7.2215 H            1 COA157   0.0000
    59 H5B2       -26.3946   -23.8902     7.1573 H            1 COA157   0.0000
    60 HCP1       -26.7871   -21.4462     6.2946 H            1 COA157   0.0000
    61 HCP2       -26.8585   -20.2330     7.3853 H            1 COA157   0.0000
    62 HDP1       -24.2159   -18.9855     5.4520 H            1 COA157   0.0000
    63 HDP2       -24.7799   -19.1854     6.9714 H            1 COA157   0.0000
    64 HDP3       -24.4021   -20.4885     6.0626 H            1 COA157   0.0000
    65 HEP1       -25.7833   -19.7528     3.4711 H            1 COA157   0.0000
    66 HEP2       -25.9152   -21.2053     4.2056 H            1 COA157   0.0000
    67 HEP3       -27.2569   -20.3437     3.8532 H            1 COA157   0.0000
    68 HAP        -27.7239   -18.1989     5.0353 H            1 COA157   0.0000
    69 H21        -27.3446   -16.8594     6.8569 H            1 COA157   0.0000
    70 H8P        -25.4440   -16.2280     6.4311 H            1 COA157   0.0000
    71 H7P1       -24.0824   -14.6456     5.4894 H            1 COA157   0.0000
    72 H7P2       -24.5054   -15.1228     3.9861 H            1 COA157   0.0000
    73 H6P1       -23.0301   -16.9887     4.1850 H            1 COA157   0.0000
    74 H6P2       -22.5793   -16.4573     5.6619 H            1 COA157   0.0000
    75 H4P        -20.9304   -15.1189     5.9088 H            1 COA157   0.0000
    76 H3P1       -19.7726   -14.0384     3.4811 H            1 COA157   0.0000
    77 H3P2       -18.8810   -14.6572     4.7012 H            1 COA157   0.0000
    78 H2P1       -18.7997   -12.3285     4.8532 H            1 COA157   0.0000
    79 H2P2       -19.6710   -12.8877     6.1161 H            1 COA157   0.0000
    80 H1P        -20.9870   -10.8720     5.0450 H            1 COA157   0.0000
@<TRIPOS>BOND
     1    1    2      ar
     2    1    6      ar
     3    2    3      ar
     4    3    4      ar
     5    4    5      ar
     6    4   10       1
     7    5    6      ar
     8    5    8       1
     9    6    7       1
    10    8    9       2
    11    9   10       1
    12   10   11       1
    13   11   12       1
    14   11   21       1
    15   12   13       1
    16   12   14       1
    17   14   15       1
    18   14   20       1
    19   15   16       1
    20   16   17      ar
    21   16   18      ar
    22   16   19      ar
    23   20   21       1
    24   20   22       1
    25   22   23       1
    26   23   24       1
    27   24   25      ar
    28   24   26      ar
    29   24   27       1
    30   27   28       1
    31   28   29      ar
    32   28   30      ar
    33   28   31       1
    34   31   33       1
    35   32   33       1
    36   32   34       1
    37   32   35       1
    38   32   36       1
    39   36   37       1
    40   36   38       1
    41   38   39       2
    42   38   40      am
    43   40   41       1
    44   41   42       1
    45   42   43       1
    46   43   44       2
    47   43   45      am
    48   45   46       1
    49   46   47       1
    50   47   48       1
    51    2   49       1
    52    7   50       1
    53    7   51       1
    54    9   52       1
    55   11   53       1
    56   12   54       1
    57   13   55       1
    58   14   56       1
    59   48   80       1
    60   47   79       1
    61   20   57       1
    62   22   58       1
    63   22   59       1
    64   47   78       1
    65   46   77       1
    66   33   60       1
    67   33   61       1
    68   34   62       1
    69   34   63       1
    70   34   64       1
    71   35   65       1
    72   35   66       1
    73   35   67       1
    74   36   68       1
    75   37   69       1
    76   40   70       1
    77   41   71       1
    78   41   72       1
    79   42   73       1
    80   42   74       1
    81   45   75       1
    82   46   76       1
@<TRIPOS>SUBSTRUCTURE
     1 COA157      1 GROUP             4 A     COA     0 **** COA A 157
