@<TRIPOS>MOLECULE
2dsa_HPX_3_ligand
   25    25     1     0     0
SMALL
NO_CHARGES


@<TRIPOS>ATOM
     1 CB3         37.9670    50.3540    40.1730 C.ar         1 HPX3225   0.0000
     2 CB4         36.8800    50.5860    41.0160 C.ar         1 HPX3225   0.0000
     3 CB5         35.7710    51.2810    40.5360 C.ar         1 HPX3225   0.0000
     4 CB6         35.7490    51.7290    39.2160 C.ar         1 HPX3225   0.0000
     5 CB1         36.8300    51.4940    38.3770 C.ar         1 HPX3225   0.0000
     6 CB2         37.9400    50.8080    38.8580 C.ar         1 HPX3225   0.0000
     7 CA6         36.8170    51.9850    36.9640 C.2          1 HPX3225   0.0000
     8 OA4         37.8770    52.1520    36.3780 O.2          1 HPX3225   0.0000
     9 CA5         35.5600    52.2840    36.2630 C.2          1 HPX3225   0.0000
    10 CA4         35.6370    53.2280    35.3410 C.2          1 HPX3225   0.0000
    11 CA3         34.5010    53.6650    34.5210 C.2          1 HPX3225   0.0000
    12 CA2         34.7160    54.5830    33.5750 C.2          1 HPX3225   0.0000
    13 OA3         35.9110    55.1240    33.3610 O.3          1 HPX3225   0.0000
    14 CA1         33.6290    55.0210    32.7340 C.2          1 HPX3225   0.0000
    15 OA2         32.5000    54.5360    32.9310 O.co2        1 HPX3225   0.0000
    16 OA1         33.8790    55.8540    31.8390 O.co2        1 HPX3225  -1.0000
    17 HB3         38.7670    49.8606    40.5144 H            1 HPX3225   0.0000
    18 HB4         36.8962    50.2555    41.9597 H            1 HPX3225   0.0000
    19 HB5         34.9922    51.4580    41.1378 H            1 HPX3225   0.0000
    20 HB6         34.9502    52.2223    38.8716 H            1 HPX3225   0.0000
    21 HB2         38.7213    50.6405    38.2568 H            1 HPX3225   0.0000
    22 HA5         34.7060    51.8064    36.4693 H            1 HPX3225   0.0000
    23 HA4         36.5215    53.6705    35.1935 H            1 HPX3225   0.0000
    24 HA3         33.5878    53.2845    34.6671 H            1 HPX3225   0.0000
    25 H9          36.0283    55.8087    32.6416 H            1 HPX3225   0.0000
@<TRIPOS>BOND
     1    1    2      ar
     2    1    6      ar
     3    2    3      ar
     4    3    4      ar
     5    4    5      ar
     6    5    6      ar
     7    5    7       1
     8    7    8       2
     9    7    9       1
    10    9   10       2
    11   10   11       1
    12   11   12       2
    13   12   13       1
    14   12   14       1
    15   14   15      ar
    16   14   16      ar
    17    1   17       1
    18    2   18       1
    19    3   19       1
    20    4   20       1
    21    6   21       1
    22    9   22       1
    23   10   23       1
    24   11   24       1
    25   13   25       1
@<TRIPOS>SUBSTRUCTURE
     1 HPX3225     1 GROUP             4 C     HPX     0 **** HPX C3225
