@<TRIPOS>MOLECULE
3a51_VDY_5_ligand
   73    75     1     0     0
SMALL
NO_CHARGES


@<TRIPOS>ATOM
     1 O1         -52.1770    39.1990   -28.6650 O.3          1 VDY6178   0.0000
     2 O2         -63.5820    49.2810   -34.5750 O.3          1 VDY6178   0.0000
     3 C1         -54.7710    38.4890   -29.7110 C.3          1 VDY6178   0.0000
     4 C2         -53.6760    39.1120   -30.5630 C.3          1 VDY6178   0.0000
     5 C3         -52.7460    39.9980   -29.7190 C.3          1 VDY6178   0.0000
     6 C4         -53.4260    41.2400   -29.1260 C.3          1 VDY6178   0.0000
     7 C5         -54.8860    40.9270   -28.9350 C.2          1 VDY6178   0.0000
     8 C6         -55.9050    41.7770   -28.8390 C.2          1 VDY6178   0.0000
     9 C7         -56.2120    43.1860   -28.9430 C.2          1 VDY6178   0.0000
    10 C8         -56.6450    43.4570   -30.1870 C.2          1 VDY6178   0.0000
    11 C9         -56.6450    42.3520   -31.2310 C.3          1 VDY6178   0.0000
    12 C10        -55.4000    39.5690   -28.8470 C.2          1 VDY6178   0.0000
    13 C11        -56.6800    42.8340   -32.6890 C.3          1 VDY6178   0.0000
    14 C12        -57.5070    44.1030   -32.9520 C.3          1 VDY6178   0.0000
    15 C13        -58.1900    44.6610   -31.6980 C.3          1 VDY6178   0.0000
    16 C14        -57.1270    44.8170   -30.6120 C.3          1 VDY6178   0.0000
    17 C15        -57.8090    45.6670   -29.5390 C.3          1 VDY6178   0.0000
    18 C16        -58.9060    46.4360   -30.2880 C.3          1 VDY6178   0.0000
    19 C17        -58.6930    46.1060   -31.7700 C.3          1 VDY6178   0.0000
    20 C18        -59.3590    43.7430   -31.2630 C.3          1 VDY6178   0.0000
    21 C19        -56.4750    39.3380   -28.0800 C.2          1 VDY6178   0.0000
    22 C20        -59.8990    46.4460   -32.6550 C.3          1 VDY6178   0.0000
    23 C21        -59.7880    45.9040   -34.0900 C.3          1 VDY6178   0.0000
    24 C22        -60.1120    47.9600   -32.6120 C.3          1 VDY6178   0.0000
    25 C23        -61.3520    48.4210   -33.3680 C.3          1 VDY6178   0.0000
    26 C24        -62.5730    48.5330   -32.4590 C.3          1 VDY6178   0.0000
    27 C25        -63.8320    49.0270   -33.1810 C.3          1 VDY6178   0.0000
    28 C26        -64.9130    47.9610   -33.1090 C.3          1 VDY6178   0.0000
    29 C27        -64.3240    50.3230   -32.5510 C.3          1 VDY6178   0.0000
    30 H1         -52.4338    39.5845   -27.7788 H            1 VDY6178   0.0000
    31 H2         -64.4230    49.6005   -35.0117 H            1 VDY6178   0.0000
    32 H3         -54.3781    37.7788   -29.1268 H            1 VDY6178   0.0000
    33 H4         -55.4681    38.0853   -30.3036 H            1 VDY6178   0.0000
    34 H5         -54.0975    39.6704   -31.2775 H            1 VDY6178   0.0000
    35 H6         -53.1369    38.3828   -30.9844 H            1 VDY6178   0.0000
    36 H7         -51.9991    40.3078   -30.3074 H            1 VDY6178   0.0000
    37 H8         -53.3241    42.0135   -29.7516 H            1 VDY6178   0.0000
    38 H9         -53.0098    41.4664   -28.2454 H            1 VDY6178   0.0000
    39 H10        -56.7397    41.2709   -28.6217 H            1 VDY6178   0.0000
    40 H11        -56.1172    43.8544   -28.2053 H            1 VDY6178   0.0000
    41 H12        -57.4490    41.7782   -31.0749 H            1 VDY6178   0.0000
    42 H13        -55.8165    41.8064   -31.1048 H            1 VDY6178   0.0000
    43 H14        -57.0619    42.0973   -33.2470 H            1 VDY6178   0.0000
    44 H15        -55.7392    43.0156   -32.9752 H            1 VDY6178   0.0000
    45 H16        -58.2127    43.8863   -33.6265 H            1 VDY6178   0.0000
    46 H17        -56.8987    44.8062   -33.3201 H            1 VDY6178   0.0000
    47 H18        -56.3551    45.3300   -30.9875 H            1 VDY6178   0.0000
    48 H19        -57.1561    46.3001   -29.1232 H            1 VDY6178   0.0000
    49 H20        -58.2077    45.0857   -28.8297 H            1 VDY6178   0.0000
    50 H21        -58.8134    47.4193   -30.1315 H            1 VDY6178   0.0000
    51 H22        -59.8114    46.1346   -29.9888 H            1 VDY6178   0.0000
    52 H23        -57.9287    46.6668   -32.0882 H            1 VDY6178   0.0000
    53 H24        -59.7929    44.1208   -30.4451 H            1 VDY6178   0.0000
    54 H25        -60.0312    43.6869   -32.0012 H            1 VDY6178   0.0000
    55 H26        -59.0077    42.8286   -31.0618 H            1 VDY6178   0.0000
    56 H27        -56.8607    40.0748   -27.5247 H            1 VDY6178   0.0000
    57 H28        -56.8912    38.4289   -28.0632 H            1 VDY6178   0.0000
    58 H29        -60.7025    46.0210   -32.2382 H            1 VDY6178   0.0000
    59 H30        -60.6040    46.1614   -34.6076 H            1 VDY6178   0.0000
    60 H31        -58.9780    46.2908   -34.5307 H            1 VDY6178   0.0000
    61 H32        -59.7099    44.9074   -34.0648 H            1 VDY6178   0.0000
    62 H33        -59.3119    48.4038   -33.0157 H            1 VDY6178   0.0000
    63 H34        -60.2017    48.2400   -31.6562 H            1 VDY6178   0.0000
    64 H35        -61.5502    47.7622   -34.0938 H            1 VDY6178   0.0000
    65 H36        -61.1682    49.3170   -33.7722 H            1 VDY6178   0.0000
    66 H37        -62.3600    49.1732   -31.7209 H            1 VDY6178   0.0000
    67 H38        -62.7636    47.6305   -32.0728 H            1 VDY6178   0.0000
    68 H39        -65.1157    47.7560   -32.1515 H            1 VDY6178   0.0000
    69 H40        -65.7404    48.2943   -33.5609 H            1 VDY6178   0.0000
    70 H41        -64.5941    47.1314   -33.5672 H            1 VDY6178   0.0000
    71 H42        -64.5056    50.1732   -31.5791 H            1 VDY6178   0.0000
    72 H43        -63.6247    51.0303   -32.6543 H            1 VDY6178   0.0000
    73 H44        -65.1648    50.6166   -33.0059 H            1 VDY6178   0.0000
@<TRIPOS>BOND
     1    1    5       1
     2    2   27       1
     3    3    4       1
     4    3   12       1
     5    4    5       1
     6    5    6       1
     7    6    7       1
     8    7    8       2
     9    7   12       1
    10    8    9       1
    11    9   10       2
    12   10   11       1
    13   10   16       1
    14   11   13       1
    15   12   21       2
    16   13   14       1
    17   14   15       1
    18   15   16       1
    19   15   19       1
    20   15   20       1
    21   16   17       1
    22   17   18       1
    23   18   19       1
    24   19   22       1
    25   22   23       1
    26   22   24       1
    27   24   25       1
    28   25   26       1
    29   26   27       1
    30   27   28       1
    31   27   29       1
    32    1   30       1
    33    2   31       1
    34    3   32       1
    35    3   33       1
    36    4   34       1
    37    4   35       1
    38    5   36       1
    39    6   37       1
    40    6   38       1
    41    8   39       1
    42    9   40       1
    43   11   41       1
    44   11   42       1
    45   13   43       1
    46   13   44       1
    47   14   45       1
    48   14   46       1
    49   16   47       1
    50   17   48       1
    51   17   49       1
    52   18   50       1
    53   18   51       1
    54   19   52       1
    55   20   53       1
    56   20   54       1
    57   20   55       1
    58   21   56       1
    59   21   57       1
    60   22   58       1
    61   23   59       1
    62   23   60       1
    63   23   61       1
    64   24   62       1
    65   24   63       1
    66   25   64       1
    67   25   65       1
    68   26   66       1
    69   26   67       1
    70   28   68       1
    71   28   69       1
    72   28   70       1
    73   29   71       1
    74   29   72       1
    75   29   73       1
@<TRIPOS>SUBSTRUCTURE
     1 VDY6178     1 GROUP             4 E     VDY     0 **** VDY E6178
