@<TRIPOS>MOLECULE
4d9m_0JO_1_ligand
   31    31     1     0     0
SMALL
NO_CHARGES


@<TRIPOS>ATOM
     1 O           24.9640    60.3680    70.4040 O.co2        1 0JO401   0.0000
     2 C           25.4730    59.6420    71.2860 C.2          1 0JO401   0.0000
     3 OXT         25.9830    58.5370    71.0030 O.co2        1 0JO401  -1.0000
     4 CA          25.4840    60.1030    72.6770 C.2          1 0JO401   0.0000
     5 CB          24.7100    61.0910    73.1030 C.2          1 0JO401   0.0000
     6 N           26.3290    59.5100    73.5300 N.pl3        1 0JO401   0.0000
     7 C4A         25.9620    58.6930    74.4280 C.2          1 0JO401   0.0000
     8 C4          26.9580    58.0580    75.3440 C.2          1 0JO401   0.0000
     9 C3          28.1190    57.4790    74.8440 C.2          1 0JO401   0.0000
    10 O3          28.3820    57.4830    73.5050 O.2          1 0JO401   0.0000
    11 C2          29.0230    56.8970    75.7220 C.2          1 0JO401   0.0000
    12 C2A         30.2860    56.2710    75.2040 C.3          1 0JO401   0.0000
    13 N1          28.7930    56.8760    77.0520 N.2          1 0JO401   0.0000
    14 C6          27.6860    57.4200    77.5580 C.2          1 0JO401   0.0000
    15 C5          26.7520    58.0190    76.7190 C.2          1 0JO401   0.0000
    16 C5A         25.5310    58.6260    77.3540 C.3          1 0JO401   0.0000
    17 OP4         24.4050    57.7700    77.2180 O.3          1 0JO401   0.0000
    18 P           22.9510    58.4030    77.4780 P.3          1 0JO401   0.0000
    19 OP3         22.8050    59.5140    76.4600 O.co2        1 0JO401   0.0000
    20 OP1         22.1070    57.1710    77.2920 O.co2        1 0JO401  -1.0000
    21 OP2         22.9860    58.9390    78.8920 O.co2        1 0JO401  -1.0000
    22 HB1         24.7461    61.3772    74.0605 H            1 0JO401   0.0000
    23 HB2         24.0899    61.5502    72.4669 H            1 0JO401   0.0000
    24 H4A         24.9919    58.4703    74.5247 H            1 0JO401   0.0000
    25 H2A1        30.8143    55.9038    75.9695 H            1 0JO401   0.0000
    26 H2A2        30.0563    55.5308    74.5720 H            1 0JO401   0.0000
    27 H2A3        30.8284    56.9616    74.7255 H            1 0JO401   0.0000
    28 H7          27.5264    57.3973    78.5449 H            1 0JO401   0.0000
    29 H5A1        25.3324    59.5000    76.9105 H            1 0JO401   0.0000
    30 H5A2        25.7099    58.7785    78.3260 H            1 0JO401   0.0000
    31 H10         27.3031    59.7231    73.4548 H            1 0JO401   0.0000
@<TRIPOS>BOND
     1    1    2      ar
     2    2    3      ar
     3    2    4       1
     4    4    5       2
     5    4    6       1
     6    6    7       1
     7    7    8       2
     8    8    9       1
     9    8   15       1
    10    9   10       2
    11    9   11       1
    12   11   12       1
    13   11   13       2
    14   13   14       1
    15   14   15       2
    16   15   16       1
    17   16   17       1
    18   17   18       1
    19   18   19      ar
    20   18   20      ar
    21   18   21      ar
    22   16   30       1
    23    5   22       1
    24    5   23       1
    25    7   24       1
    26    6   31       1
    27   12   25       1
    28   12   26       1
    29   12   27       1
    30   14   28       1
    31   16   29       1
@<TRIPOS>SUBSTRUCTURE
     1 0JO401      1 GROUP             4 A     0JO     0 **** 0JO A 401
