@<TRIPOS>MOLECULE
5a89_FMN_1_ligand
   50    52     1     0     0
SMALL
NO_CHARGES


@<TRIPOS>ATOM
     1 N1           3.2260   -23.8900   -18.7990 N.2          1 FMN339   0.0000
     2 C2           2.3520   -24.2270   -19.7840 C.2          1 FMN339   0.0000
     3 O2           1.5840   -23.3380   -20.2380 O.2          1 FMN339   0.0000
     4 N3           2.3210   -25.4680   -20.3020 N.pl3        1 FMN339   0.0000
     5 C4           3.1110   -26.4680   -19.8710 C.2          1 FMN339   0.0000
     6 O4           3.0720   -27.5910   -20.3960 O.2          1 FMN339   0.0000
     7 C4A          4.0890   -26.2010   -18.7880 C.2          1 FMN339   0.0000
     8 N5           4.9230   -27.1330   -18.2680 N.2          1 FMN339   0.0000
     9 C5A          5.7800   -26.7910   -17.2590 C.ar         1 FMN339   0.0000
    10 C6           6.6230   -27.7290   -16.7130 C.ar         1 FMN339   0.0000
    11 C7           7.5040   -27.4520   -15.6950 C.ar         1 FMN339   0.0000
    12 C7M          8.4310   -28.5160   -15.1440 C.3          1 FMN339   0.0000
    13 C8           7.5590   -26.0680   -15.1690 C.ar         1 FMN339   0.0000
    14 C8M          8.5090   -25.6840   -14.0660 C.3          1 FMN339   0.0000
    15 C9           6.7070   -25.1090   -15.6920 C.ar         1 FMN339   0.0000
    16 C9A          5.8250   -25.3990   -16.7250 C.ar         1 FMN339   0.0000
    17 N10          4.9820   -24.4350   -17.2760 N.pl3        1 FMN339   0.0000
    18 C10          4.0880   -24.7970   -18.2890 C.2          1 FMN339   0.0000
    19 C1'          5.0220   -23.0390   -16.8350 C.3          1 FMN339   0.0000
    20 C2'          4.1120   -22.5880   -15.7460 C.3          1 FMN339   0.0000
    21 O2'          2.9030   -22.3050   -16.4450 O.3          1 FMN339   0.0000
    22 C3'          4.7410   -21.3430   -15.1140 C.3          1 FMN339   0.0000
    23 O3'          5.9840   -21.7210   -14.5180 O.3          1 FMN339   0.0000
    24 C4'          3.8010   -20.7950   -14.0570 C.3          1 FMN339   0.0000
    25 O4'          2.6290   -20.2720   -14.6840 O.3          1 FMN339   0.0000
    26 C5'          4.4470   -19.7140   -13.1970 C.3          1 FMN339   0.0000
    27 O5'          4.6590   -18.5370   -13.9570 O.3          1 FMN339   0.0000
    28 P            5.5470   -17.3700   -13.2570 P.3          1 FMN339   0.0000
    29 O1P          6.8910   -17.9010   -12.8970 O.co2        1 FMN339   0.0000
    30 O2P          5.5480   -16.2710   -14.2600 O.co2        1 FMN339  -1.0000
    31 O3P          4.8020   -16.9980   -11.9650 O.co2        1 FMN339  -1.0000
    32 H1           1.6785   -25.6567   -21.0447 H            1 FMN339   0.0000
    33 H2           6.5940   -28.6608   -17.0749 H            1 FMN339   0.0000
    34 H7M1         8.9912   -28.1245   -14.4140 H            1 FMN339   0.0000
    35 H7M2         7.8895   -29.2733   -14.7789 H            1 FMN339   0.0000
    36 H7M3         9.0242   -28.8525   -15.8754 H            1 FMN339   0.0000
    37 H8M1         8.3965   -24.7137   -13.8519 H            1 FMN339   0.0000
    38 H8M2         8.3124   -26.2300   -13.2516 H            1 FMN339   0.0000
    39 H8M3         9.4491   -25.8532   -14.3618 H            1 FMN339   0.0000
    40 H9           6.7276   -24.1828   -15.3156 H            1 FMN339   0.0000
    41 H1'1         4.8194   -22.4751   -17.6356 H            1 FMN339   0.0000
    42 H1'2         5.9561   -22.8578   -16.5273 H            1 FMN339   0.0000
    43 H2'          3.9764   -23.3090   -15.0665 H            1 FMN339   0.0000
    44 H13          2.8335   -22.9004   -17.2454 H            1 FMN339   0.0000
    45 H3'          4.8999   -20.6502   -15.8174 H            1 FMN339   0.0000
    46 H15          6.6146   -20.9453   -14.5418 H            1 FMN339   0.0000
    47 H4'          3.5272   -21.5488   -13.4597 H            1 FMN339   0.0000
    48 H17          2.4474   -20.7788   -15.5267 H            1 FMN339   0.0000
    49 H5'1         5.3253   -20.0472   -12.8542 H            1 FMN339   0.0000
    50 H5'2         3.8461   -19.5041   -12.4257 H            1 FMN339   0.0000
@<TRIPOS>BOND
     1    1    2       1
     2    1   18       2
     3    2    3       2
     4    2    4       1
     5    4    5       1
     6    5    6       2
     7    5    7       1
     8    7    8       2
     9    7   18       1
    10    8    9       1
    11    9   10      ar
    12    9   16      ar
    13   10   11      ar
    14   11   12       1
    15   11   13      ar
    16   13   14       1
    17   13   15      ar
    18   15   16      ar
    19   16   17       1
    20   17   18       1
    21   17   19       1
    22   19   20       1
    23   20   21       1
    24   20   22       1
    25   22   23       1
    26   22   24       1
    27   24   25       1
    28   24   26       1
    29   26   27       1
    30   27   28       1
    31   28   29      ar
    32   28   30      ar
    33   28   31      ar
    34    4   32       1
    35   10   33       1
    36   12   34       1
    37   12   35       1
    38   12   36       1
    39   14   37       1
    40   14   38       1
    41   14   39       1
    42   15   40       1
    43   19   41       1
    44   19   42       1
    45   20   43       1
    46   21   44       1
    47   22   45       1
    48   23   46       1
    49   24   47       1
    50   25   48       1
    51   26   49       1
    52   26   50       1
@<TRIPOS>SUBSTRUCTURE
     1 FMN339      1 GROUP             4 A     FMN     0 **** FMN A 339
