@<TRIPOS>MOLECULE
4e0h_FAD_1_ligand
   84    89     1     0     0
SMALL
NO_CHARGES


@<TRIPOS>ATOM
     1 PA          -0.9520   -14.2750    -4.0230 P.3          1 FAD201   0.0000
     2 O1A         -1.6590   -15.0640    -2.9370 O.co2        1 FAD201   0.0000
     3 O2A         -1.5460   -12.8970    -4.2430 O.co2        1 FAD201  -1.0000
     4 O5B         -0.9690   -15.1070    -5.3740 O.3          1 FAD201   0.0000
     5 C5B         -0.7040   -16.4970    -5.5320 C.3          1 FAD201   0.0000
     6 C4B         -0.2900   -16.7200    -6.9900 C.3          1 FAD201   0.0000
     7 O4B         -1.4080   -16.4490    -7.8010 O.3          1 FAD201   0.0000
     8 C3B          0.7130   -15.7160    -7.5310 C.3          1 FAD201   0.0000
     9 O3B          1.9930   -16.1490    -7.1810 O.3          1 FAD201   0.0000
    10 C2B          0.4550   -15.6460    -9.0320 C.3          1 FAD201   0.0000
    11 O2B          1.0490   -16.7170    -9.7530 O.3          1 FAD201   0.0000
    12 C1B         -1.0350   -15.9600    -9.0780 C.3          1 FAD201   0.0000
    13 N9A         -1.8060   -14.7000    -9.2820 N.pl3        1 FAD201   0.0000
    14 C8A         -1.5170   -13.4400    -8.8060 C.2          1 FAD201   0.0000
    15 N7A         -2.5520   -12.6240    -9.1790 N.2          1 FAD201   0.0000
    16 C5A         -3.4690   -13.3170    -9.8800 C.ar         1 FAD201   0.0000
    17 C6A         -4.6750   -12.9830   -10.5000 C.ar         1 FAD201   0.0000
    18 N6A         -5.2190   -11.7150   -10.5660 N.pl3        1 FAD201   0.0000
    19 N1A         -5.3310   -13.9860   -11.1110 N.ar         1 FAD201   0.0000
    20 C2A         -4.8680   -15.2750   -11.1440 C.ar         1 FAD201   0.0000
    21 N3A         -3.6920   -15.5820   -10.5410 N.ar         1 FAD201   0.0000
    22 C4A         -3.0070   -14.6250    -9.9170 C.ar         1 FAD201   0.0000
    23 N1          -4.1030    -9.9000     2.2910 N.2          1 FAD201   0.0000
    24 C2          -4.0190    -8.6260     2.8180 C.2          1 FAD201   0.0000
    25 O2          -2.9510    -8.2480     3.3040 O.2          1 FAD201   0.0000
    26 N3          -5.1110    -7.7830     2.7810 N.pl3        1 FAD201   0.0000
    27 C4          -6.3160    -8.1940     2.2370 C.2          1 FAD201   0.0000
    28 O4          -7.3070    -7.4420     2.2070 O.2          1 FAD201   0.0000
    29 C4X         -6.4120    -9.4770     1.7230 C.2          1 FAD201   0.0000
    30 N5          -7.5960    -9.9100     1.1820 N.2          1 FAD201   0.0000
    31 C5X         -7.6820   -11.2220     0.7070 C.ar         1 FAD201   0.0000
    32 C6          -8.8780   -11.6550     0.1790 C.ar         1 FAD201   0.0000
    33 C7          -8.9880   -12.9740    -0.3030 C.ar         1 FAD201   0.0000
    34 C7M        -10.2730   -13.4550    -0.8880 C.3          1 FAD201   0.0000
    35 C8          -7.8730   -13.8260    -0.2950 C.ar         1 FAD201   0.0000
    36 C8M         -8.0140   -15.2260    -0.8190 C.3          1 FAD201   0.0000
    37 C9          -6.6560   -13.3830     0.2190 C.ar         1 FAD201   0.0000
    38 C9A         -6.5490   -12.0790     0.7250 C.ar         1 FAD201   0.0000
    39 N10         -5.3380   -11.5830     1.2180 N.pl3        1 FAD201   0.0000
    40 C10         -5.2980   -10.3110     1.7630 C.2          1 FAD201   0.0000
    41 C1'         -3.9640   -12.1260     0.8900 C.3          1 FAD201   0.0000
    42 C2'         -3.2700   -11.7030    -0.4070 C.3          1 FAD201   0.0000
    43 O2'         -4.2120   -11.6890    -1.4220 O.3          1 FAD201   0.0000
    44 C3'         -2.1470   -12.6620    -0.8130 C.3          1 FAD201   0.0000
    45 O3'         -2.5670   -14.0090    -0.9030 O.3          1 FAD201   0.0000
    46 C4'         -0.9650   -12.7140     0.1490 C.3          1 FAD201   0.0000
    47 O4'         -0.4940   -11.4070     0.3930 O.3          1 FAD201   0.0000
    48 C5'          0.1330   -13.5850    -0.4490 C.3          1 FAD201   0.0000
    49 O5'          0.6150   -12.9310    -1.6060 O.3          1 FAD201   0.0000
    50 P            1.5370   -13.6460    -2.6890 P.3          1 FAD201   0.0000
    51 O1P          2.4280   -12.6060    -3.2860 O.co2        1 FAD201   0.0000
    52 O2P          2.2800   -14.7850    -2.0760 O.co2        1 FAD201  -1.0000
    53 O3P          0.6410   -14.2220    -3.8390 O.3          1 FAD201   0.0000
    54 H5B1        -1.5259   -17.0276    -5.3248 H            1 FAD201   0.0000
    55 H5B2         0.0359   -16.7759    -4.9198 H            1 FAD201   0.0000
    56 H4B          0.0326   -17.6562    -7.1294 H            1 FAD201   0.0000
    57 H3B          0.5411   -14.8200    -7.1215 H            1 FAD201   0.0000
    58 H5           2.1601   -17.0511    -7.5788 H            1 FAD201   0.0000
    59 H2B          0.6734   -14.7507    -9.4203 H            1 FAD201   0.0000
    60 H7           1.5309   -17.3200    -9.1173 H            1 FAD201   0.0000
    61 H1B         -1.2404   -16.6278    -9.7935 H            1 FAD201   0.0000
    62 H8A         -0.7056   -13.1719    -8.2867 H            1 FAD201   0.0000
    63 H6A1        -6.0913   -11.5688   -11.0327 H            1 FAD201   0.0000
    64 H6A2        -4.7406   -10.9432   -10.1471 H            1 FAD201   0.0000
    65 H2A         -5.3942   -15.9861   -11.6102 H            1 FAD201   0.0000
    66 H13         -5.0305    -6.8586     3.1538 H            1 FAD201   0.0000
    67 H14         -9.6632   -11.0371     0.1381 H            1 FAD201   0.0000
    68 H7M1       -10.1721   -14.4071    -1.1767 H            1 FAD201   0.0000
    69 H7M2       -10.9970   -13.3898    -0.2012 H            1 FAD201   0.0000
    70 H7M3       -10.5114   -12.8906    -1.6783 H            1 FAD201   0.0000
    71 H8M1        -7.1365   -15.6998    -0.7445 H            1 FAD201   0.0000
    72 H8M2        -8.7031   -15.7145    -0.2837 H            1 FAD201   0.0000
    73 H8M3        -8.2963   -15.1962    -1.7779 H            1 FAD201   0.0000
    74 H21         -5.8627   -13.9917     0.2271 H            1 FAD201   0.0000
    75 H1'1        -4.0449   -13.1224     0.8638 H            1 FAD201   0.0000
    76 H1'2        -3.3604   -11.8602     1.6417 H            1 FAD201   0.0000
    77 H2'         -2.8934   -10.7835    -0.2944 H            1 FAD201   0.0000
    78 H25         -3.7751   -11.4142    -2.2785 H            1 FAD201   0.0000
    79 H3'         -1.8065   -12.3811    -1.7103 H            1 FAD201   0.0000
    80 H27         -2.4184   -14.3430    -1.8338 H            1 FAD201   0.0000
    81 H4'         -1.2662   -13.1178     1.0129 H            1 FAD201   0.0000
    82 H29          0.2809   -11.4443     1.0240 H            1 FAD201   0.0000
    83 H5'1        -0.2377   -14.4811    -0.6933 H            1 FAD201   0.0000
    84 H5'2         0.8748   -13.7000     0.2117 H            1 FAD201   0.0000
@<TRIPOS>BOND
     1    1    2      ar
     2    1    3      ar
     3    1    4       1
     4    1   53       1
     5    4    5       1
     6    5    6       1
     7    6    7       1
     8    6    8       1
     9    7   12       1
    10    8    9       1
    11    8   10       1
    12   10   11       1
    13   10   12       1
    14   12   13       1
    15   13   14       1
    16   13   22       1
    17   14   15       2
    18   15   16       1
    19   16   17      ar
    20   16   22      ar
    21   17   18       1
    22   17   19      ar
    23   19   20      ar
    24   20   21      ar
    25   21   22      ar
    26   23   24       1
    27   23   40       2
    28   24   25       2
    29   24   26       1
    30   26   27       1
    31   27   28       2
    32   27   29       1
    33   29   30       2
    34   29   40       1
    35   30   31       1
    36   31   32      ar
    37   31   38      ar
    38   32   33      ar
    39   33   34       1
    40   33   35      ar
    41   35   36       1
    42   35   37      ar
    43   37   38      ar
    44   38   39       1
    45   39   40       1
    46   39   41       1
    47   41   42       1
    48   42   43       1
    49   42   44       1
    50   44   45       1
    51   44   46       1
    52   46   47       1
    53   46   48       1
    54   48   49       1
    55   49   50       1
    56   50   51      ar
    57   50   52      ar
    58   50   53       1
    59   48   84       1
    60    5   54       1
    61    5   55       1
    62    6   56       1
    63    8   57       1
    64    9   58       1
    65   10   59       1
    66   11   60       1
    67   12   61       1
    68   14   62       1
    69   18   63       1
    70   18   64       1
    71   20   65       1
    72   26   66       1
    73   32   67       1
    74   34   68       1
    75   34   69       1
    76   34   70       1
    77   36   71       1
    78   36   72       1
    79   36   73       1
    80   37   74       1
    81   41   75       1
    82   41   76       1
    83   42   77       1
    84   43   78       1
    85   44   79       1
    86   45   80       1
    87   46   81       1
    88   47   82       1
    89   48   83       1
@<TRIPOS>SUBSTRUCTURE
     1 FAD201      1 GROUP             4 A     FAD     0 **** FAD A 201
