@<TRIPOS>MOLECULE
4ir5_IR5_1_ligand
   46    49     1     0     0
SMALL
NO_CHARGES


@<TRIPOS>ATOM
     1 C01         25.0620    10.9700     0.6560 C.3          1 IR52013   0.0000
     2 C02         25.5500     9.5590     0.9120 C.2          1 IR52013   0.0000
     3 O01         24.7690     8.6300     1.1200 O.2          1 IR52013   0.0000
     4 C03         26.9620     9.3130     0.8190 C.2          1 IR52013   0.0000
     5 C04         27.9440    10.2090     0.5340 C.2          1 IR52013   0.0000
     6 C05         29.1870     9.5250     0.5170 C.2          1 IR52013   0.0000
     7 C06         30.4830    10.1510     0.2740 C.ar         1 IR52013   0.0000
     8 C07         30.9040    11.1540     1.1470 C.ar         1 IR52013   0.0000
     9 C08         32.1400    11.7640     0.9520 C.ar         1 IR52013   0.0000
    10 C09         32.9480    11.3880    -0.1000 C.ar         1 IR52013   0.0000
    11 C10         32.5360    10.4080    -0.9820 C.ar         1 IR52013   0.0000
    12 C11         31.3080     9.7570    -0.8080 C.ar         1 IR52013   0.0000
    13 C12         30.8990     8.6820    -1.7910 C.3          1 IR52013   0.0000
    14 O02         30.7810     9.1810    -3.1060 O.3          1 IR52013   0.0000
    15 C13         28.9130     8.2210     0.8730 C.2          1 IR52013   0.0000
    16 C14         29.7290     7.0790     1.0470 C.2          1 IR52013   0.0000
    17 C15         29.1490     5.9240     1.4140 C.2          1 IR52013   0.0000
    18 O1          29.8690     4.7560     1.6010 O.3          1 IR52013   0.0000
    19 C16         31.2400     4.7930     1.8110 C.ar         1 IR52013   0.0000
    20 C17         32.0900     4.4700     0.7720 C.ar         1 IR52013   0.0000
    21 C18         33.4640     4.4860     0.9990 C.ar         1 IR52013   0.0000
    22 C19         33.9650     4.7890     2.2470 C.ar         1 IR52013   0.0000
    23 C20         33.1070     5.0700     3.2900 C.ar         1 IR52013   0.0000
    24 C21         31.7290     5.0960     3.0770 C.ar         1 IR52013   0.0000
    25 C22         27.7960     5.7800     1.5690 C.2          1 IR52013   0.0000
    26 C1          26.9890     6.8560     1.3840 C.2          1 IR52013   0.0000
    27 N1          27.5270     8.0650     1.0420 N.pl3        1 IR52013   0.0000
    28 H1          25.8465    11.5729     0.5111 H            1 IR52013   0.0000
    29 H2          24.4800    10.9790    -0.1571 H            1 IR52013   0.0000
    30 H3          24.5373    11.2895     1.4450 H            1 IR52013   0.0000
    31 H4          27.8124    11.1858     0.3648 H            1 IR52013   0.0000
    32 H5          30.3206    11.4336     1.9095 H            1 IR52013   0.0000
    33 H6          32.4442    12.4805     1.5798 H            1 IR52013   0.0000
    34 H7          33.8375    11.8273    -0.2252 H            1 IR52013   0.0000
    35 H8          33.1214    10.1603    -1.7540 H            1 IR52013   0.0000
    36 H9          30.0165     8.3059    -1.5086 H            1 IR52013   0.0000
    37 H10         31.5884     7.9577    -1.7818 H            1 IR52013   0.0000
    38 H11         30.5099    10.1430    -3.0744 H            1 IR52013   0.0000
    39 H12         30.7168     7.1301     0.9000 H            1 IR52013   0.0000
    40 H13         31.7256     4.2289    -0.1275 H            1 IR52013   0.0000
    41 H14         34.0926     4.2759     0.2502 H            1 IR52013   0.0000
    42 H15         34.9536     4.8052     2.3967 H            1 IR52013   0.0000
    43 H16         33.4742     5.2556     4.2014 H            1 IR52013   0.0000
    44 H17         31.1034     5.3285     3.8217 H            1 IR52013   0.0000
    45 H18         27.4069     4.8925     1.8156 H            1 IR52013   0.0000
    46 H19         25.9998     6.7639     1.4981 H            1 IR52013   0.0000
@<TRIPOS>BOND
     1    1    2       1
     2    2    3       2
     3    2    4       1
     4    4    5       2
     5    4   27       1
     6    5    6       1
     7    6    7       1
     8    6   15       2
     9    7    8      ar
    10    7   12      ar
    11    8    9      ar
    12    9   10      ar
    13   10   11      ar
    14   11   12      ar
    15   12   13       1
    16   13   14       1
    17   15   16       1
    18   15   27       1
    19   16   17       2
    20   17   18       1
    21   17   25       1
    22   18   19       1
    23   19   20      ar
    24   19   24      ar
    25   20   21      ar
    26   21   22      ar
    27   22   23      ar
    28   23   24      ar
    29   25   26       2
    30   26   27       1
    31    1   28       1
    32    1   29       1
    33    1   30       1
    34    5   31       1
    35    8   32       1
    36    9   33       1
    37   10   34       1
    38   11   35       1
    39   13   36       1
    40   13   37       1
    41   14   38       1
    42   16   39       1
    43   20   40       1
    44   21   41       1
    45   22   42       1
    46   23   43       1
    47   24   44       1
    48   25   45       1
    49   26   46       1
@<TRIPOS>SUBSTRUCTURE
     1 IR52013     1 GROUP             4 A     IR5     0 **** IR5 A2013
