@<TRIPOS>MOLECULE
2yxl_SFG_1_ligand
   51    53     1     0     0
SMALL
NO_CHARGES


@<TRIPOS>ATOM
     1 N          -21.1200    76.5500    16.9320 N.4          1 SFG5748   1.0000
     2 CA         -20.8240    77.8000    16.2090 C.3          1 SFG5748   0.0000
     3 C          -21.2260    77.6620    14.7260 C.2          1 SFG5748   0.0000
     4 O          -21.4660    78.7140    14.0970 O.co2        1 SFG5748   0.0000
     5 OXT        -21.2990    76.5080    14.2520 O.co2        1 SFG5748  -1.0000
     6 CB         -19.3340    78.1630    16.3600 C.3          1 SFG5748   0.0000
     7 CG         -18.9850    78.4810    17.8260 C.3          1 SFG5748   0.0000
     8 CD         -17.5280    78.9340    18.0110 C.3          1 SFG5748   0.0000
     9 NE         -16.6370    77.8280    17.6330 N.4          1 SFG5748   1.0000
    10 C5'        -17.2080    79.3020    19.4770 C.3          1 SFG5748   0.0000
    11 C4'        -18.1880    80.3190    20.1150 C.3          1 SFG5748   0.0000
    12 O4'        -18.1790    80.0440    21.5360 O.3          1 SFG5748   0.0000
    13 C3'        -17.7520    81.7890    19.9790 C.3          1 SFG5748   0.0000
    14 O3'        -18.7830    82.5150    19.2960 O.3          1 SFG5748   0.0000
    15 C2'        -17.6090    82.2820    21.4270 C.3          1 SFG5748   0.0000
    16 O2'        -18.1260    83.6100    21.5790 O.3          1 SFG5748   0.0000
    17 C1'        -18.4990    81.2950    22.1740 C.3          1 SFG5748   0.0000
    18 N9         -18.2050    81.1640    23.6310 N.pl3        1 SFG5748   0.0000
    19 C8         -17.0000    81.0580    24.1960 C.2          1 SFG5748   0.0000
    20 N7         -17.1320    80.9440    25.5180 N.2          1 SFG5748   0.0000
    21 C5         -18.4310    80.9780    25.8000 C.ar         1 SFG5748   0.0000
    22 C6         -19.1650    80.9060    26.9820 C.ar         1 SFG5748   0.0000
    23 N6         -18.5530    80.7750    28.1570 N.pl3        1 SFG5748   0.0000
    24 N1         -20.5070    80.9710    26.9200 N.ar         1 SFG5748   0.0000
    25 C2         -21.1290    81.1020    25.7550 C.ar         1 SFG5748   0.0000
    26 N3         -20.4570    81.1740    24.6120 N.ar         1 SFG5748   0.0000
    27 C4         -19.1140    81.1140    24.6020 C.ar         1 SFG5748   0.0000
    28 H1         -20.3246    75.9453    16.8917 H            1 SFG5748   0.0000
    29 H2         -21.3316    76.7592    17.8867 H            1 SFG5748   0.0000
    30 HA         -21.3686    78.5339    16.6149 H            1 SFG5748   0.0000
    31 HB1        -19.1345    78.9642    15.7959 H            1 SFG5748   0.0000
    32 HB2        -18.7773    77.3915    16.0520 H            1 SFG5748   0.0000
    33 HG1        -19.1354    77.6589    18.3751 H            1 SFG5748   0.0000
    34 HG2        -19.5889    79.2109    18.1464 H            1 SFG5748   0.0000
    35 HD         -17.3475    79.7225    17.4230 H            1 SFG5748   0.0000
    36 HE1        -15.6853    78.1119    17.7496 H            1 SFG5748   0.0000
    37 HE2        -16.8225    77.0366    18.2154 H            1 SFG5748   0.0000
    38 H5'1       -16.2885    79.6940    19.5067 H            1 SFG5748   0.0000
    39 H5'2       -17.2306    78.4634    20.0212 H            1 SFG5748   0.0000
    40 H4'        -19.1080    80.1942    19.7434 H            1 SFG5748   0.0000
    41 H3'        -16.8823    81.8595    19.4905 H            1 SFG5748   0.0000
    42 H15        -19.6326    82.4605    19.8207 H            1 SFG5748   0.0000
    43 H2'        -16.6606    82.2236    21.7386 H            1 SFG5748   0.0000
    44 H17        -19.0955    83.6204    21.3340 H            1 SFG5748   0.0000
    45 H1'        -19.4630    81.5206    22.0329 H            1 SFG5748   0.0000
    46 H19        -16.1302    81.0633    23.7026 H            1 SFG5748   0.0000
    47 H20        -19.0913    80.7245    28.9982 H            1 SFG5748   0.0000
    48 H21        -17.5550    80.7271    28.1984 H            1 SFG5748   0.0000
    49 H22        -22.1278    81.1476    25.7375 H            1 SFG5748   0.0000
    50 H23        -21.9046    76.0975    16.5081 H            1 SFG5748   0.0000
    51 HE3        -16.7970    77.5830    16.6768 H            1 SFG5748   0.0000
@<TRIPOS>BOND
     1    1    2       1
     2    2    3       1
     3    2    6       1
     4    3    4      ar
     5    3    5      ar
     6    6    7       1
     7    7    8       1
     8    8    9       1
     9    8   10       1
    10   10   11       1
    11   11   12       1
    12   11   13       1
    13   12   17       1
    14   13   14       1
    15   13   15       1
    16   15   16       1
    17   15   17       1
    18   17   18       1
    19   18   19       1
    20   18   27       1
    21   19   20       2
    22   20   21       1
    23   21   22      ar
    24   21   27      ar
    25   22   23       1
    26   22   24      ar
    27   24   25      ar
    28   25   26      ar
    29   26   27      ar
    30    1   28       1
    31    1   29       1
    32    2   30       1
    33    1   50       1
    34    6   31       1
    35    6   32       1
    36    7   33       1
    37    7   34       1
    38    8   35       1
    39    9   36       1
    40    9   37       1
    41   10   38       1
    42   10   39       1
    43   11   40       1
    44   13   41       1
    45   14   42       1
    46   15   43       1
    47   16   44       1
    48   17   45       1
    49   19   46       1
    50   23   47       1
    51   23   48       1
    52   25   49       1
    53    9   51       1
@<TRIPOS>SUBSTRUCTURE
     1 SFG5748     1 GROUP             4 A     SFG     0 **** SFG A5748
