@<TRIPOS>MOLECULE
4xrq_1B0_1_ligand
   59    62     1     0     0
SMALL
NO_CHARGES


@<TRIPOS>ATOM
     1 O24         31.1810    -0.6890    -0.2870 O.2          1 1B0301   0.0000
     2 C23         29.9940    -0.4930    -0.0820 C.2          1 1B0301   0.0000
     3 N4          29.0250    -1.0570    -0.8020 N.am         1 1B0301   0.0000
     4 C5          29.2610    -1.9510    -1.9220 C.3          1 1B0301   0.0000
     5 C13         29.3670    -1.1050    -3.1740 C.2          1 1B0301   0.0000
     6 N15         30.2220    -1.4220    -4.1550 N.am         1 1B0301   0.0000
     7 C17         31.0420    -2.5510    -4.0110 C.ar         1 1B0301   0.0000
     8 C22         30.6540    -3.7770    -4.5560 C.ar         1 1B0301   0.0000
     9 C21         31.4730    -4.8970    -4.4080 C.ar         1 1B0301   0.0000
    10 C20         32.6790    -4.7950    -3.7110 C.ar         1 1B0301   0.0000
    11 C19         33.0670    -3.5700    -3.1660 C.ar         1 1B0301   0.0000
    12 C18         32.2530    -2.4450    -3.3190 C.ar         1 1B0301   0.0000
    13 C16         30.3710    -0.6520    -5.3870 C.3          1 1B0301   0.0000
    14 O14         28.6440    -0.1250    -3.2690 O.2          1 1B0301   0.0000
    15 C6          28.0660    -2.9020    -2.0280 C.3          1 1B0301   0.0000
    16 C7          28.0420    -3.8810    -0.8700 C.ar         1 1B0301   0.0000
    17 C12         28.7000    -5.1010    -0.9780 C.ar         1 1B0301   0.0000
    18 C11         28.6760    -5.9980     0.0890 C.ar         1 1B0301   0.0000
    19 C10         28.0070    -5.6770     1.2660 C.ar         1 1B0301   0.0000
    20 C9          27.3560    -4.4530     1.3810 C.ar         1 1B0301   0.0000
    21 C8          27.3730    -3.5640     0.3110 C.ar         1 1B0301   0.0000
    22 C25         29.5300     0.4510     1.0090 C.3          1 1B0301   0.0000
    23 C1          30.0490     0.1200     2.3830 C.2          1 1B0301   0.0000
    24 C26         31.3190     0.5600     2.9920 C.ar         1 1B0301   0.0000
    25 C31         32.3390     1.3430     2.4650 C.ar         1 1B0301   0.0000
    26 C30         33.4540     1.6080     3.2570 C.ar         1 1B0301   0.0000
    27 C29         33.5300     1.0870     4.5500 C.ar         1 1B0301   0.0000
    28 C28         32.5010     0.2960     5.0610 C.ar         1 1B0301   0.0000
    29 C27         31.3790     0.0250     4.2750 C.ar         1 1B0301   0.0000
    30 N3          30.2480    -0.6970     4.5140 N.pl3        1 1B0301   0.0000
    31 C2          29.4050    -0.6910     3.4480 C.2          1 1B0301   0.0000
    32 C32         28.0710    -1.3830     3.3610 C.3          1 1B0301   0.0000
    33 H1          28.0775    -0.8522    -0.5562 H            1 1B0301   0.0000
    34 H2          30.1048    -2.4687    -1.7807 H            1 1B0301   0.0000
    35 H3          29.7891    -3.8522    -5.0523 H            1 1B0301   0.0000
    36 H4          31.1961    -5.7737    -4.8014 H            1 1B0301   0.0000
    37 H5          33.2639    -5.5988    -3.6025 H            1 1B0301   0.0000
    38 H6          33.9294    -3.4975    -2.6650 H            1 1B0301   0.0000
    39 H7          32.5354    -1.5660    -2.9347 H            1 1B0301   0.0000
    40 H8          31.0657    -1.0796    -5.9654 H            1 1B0301   0.0000
    41 H9          29.4982    -0.6310    -5.8746 H            1 1B0301   0.0000
    42 H10         30.6512     0.2818    -5.1646 H            1 1B0301   0.0000
    43 H11         28.1299    -3.4123    -2.8856 H            1 1B0301   0.0000
    44 H12         27.2213    -2.3669    -2.0207 H            1 1B0301   0.0000
    45 H13         29.1890    -5.3344    -1.8185 H            1 1B0301   0.0000
    46 H14         29.1430    -6.8785     0.0078 H            1 1B0301   0.0000
    47 H15         27.9942    -6.3248     2.0277 H            1 1B0301   0.0000
    48 H16         26.8792    -4.2138     2.2268 H            1 1B0301   0.0000
    49 H17         26.8994    -2.6868     0.3902 H            1 1B0301   0.0000
    50 H18         28.5307     0.4273     1.0384 H            1 1B0301   0.0000
    51 H19         29.8347     1.3740     0.7739 H            1 1B0301   0.0000
    52 H20         32.2740     1.7086     1.5365 H            1 1B0301   0.0000
    53 H21         34.1993     2.1709     2.8997 H            1 1B0301   0.0000
    54 H22         34.3308     1.2830     5.1159 H            1 1B0301   0.0000
    55 H23         32.5665    -0.0757     5.9870 H            1 1B0301   0.0000
    56 H24         30.0606    -1.1747     5.3723 H            1 1B0301   0.0000
    57 H25         27.8841    -1.8561     4.2220 H            1 1B0301   0.0000
    58 H26         27.3549    -0.7062     3.1903 H            1 1B0301   0.0000
    59 H27         28.0878    -2.0464     2.6129 H            1 1B0301   0.0000
@<TRIPOS>BOND
     1    1    2       2
     2    2    3      am
     3    2   22       1
     4    3    4       1
     5    4    5       1
     6    4   15       1
     7    5    6      am
     8    5   14       2
     9    6    7       1
    10    6   13       1
    11    7    8      ar
    12    7   12      ar
    13    8    9      ar
    14    9   10      ar
    15   10   11      ar
    16   11   12      ar
    17   15   16       1
    18   16   17      ar
    19   16   21      ar
    20   17   18      ar
    21   18   19      ar
    22   19   20      ar
    23   20   21      ar
    24   22   23       1
    25   23   24       1
    26   23   31       2
    27   24   25      ar
    28   24   29      ar
    29   25   26      ar
    30   26   27      ar
    31   27   28      ar
    32   28   29      ar
    33   29   30       1
    34   30   31       1
    35   31   32       1
    36    3   33       1
    37    4   34       1
    38    8   35       1
    39    9   36       1
    40   10   37       1
    41   11   38       1
    42   12   39       1
    43   13   40       1
    44   13   41       1
    45   13   42       1
    46   15   43       1
    47   15   44       1
    48   17   45       1
    49   18   46       1
    50   19   47       1
    51   20   48       1
    52   21   49       1
    53   22   50       1
    54   22   51       1
    55   25   52       1
    56   26   53       1
    57   27   54       1
    58   28   55       1
    59   30   56       1
    60   32   57       1
    61   32   58       1
    62   32   59       1
@<TRIPOS>SUBSTRUCTURE
     1 1B0301      1 GROUP             4 A     1B0     0 **** 1B0 A 301
