@<TRIPOS>MOLECULE
3sa7_55A_1_ligand
   83    85     1     0     0
SMALL
NO_CHARGES


@<TRIPOS>ATOM
     1 C27         21.6130    25.3070    10.6930 C.2          1 55A102   0.0000
     2 O27         21.8730    24.5670    11.6410 O.2          1 55A102   0.0000
     3 C28         21.1340    24.7970     9.3630 C.3          1 55A102   0.0000
     4 N27         21.7350    26.6300    10.7580 N.am         1 55A102   0.0000
     5 C22         22.2420    27.3400    11.9130 C.3          1 55A102   0.0000
     6 C21         21.2580    28.3760    12.3660 C.2          1 55A102   0.0000
     7 O22         21.1230    29.4210    11.7460 O.2          1 55A102   0.0000
     8 C23         23.6000    27.9960    11.6750 C.3          1 55A102   0.0000
     9 C25         24.7130    26.9460    11.6520 C.3          1 55A102   0.0000
    10 C24         24.8170    26.5990    10.1730 C.3          1 55A102   0.0000
    11 C26         26.0490    27.3940    12.2310 C.3          1 55A102   0.0000
    12 N11         19.2980    31.6390    15.2640 N.3          1 55A102   0.0000
    13 C12         20.0940    32.6590    16.0000 C.3          1 55A102   0.0000
    14 C13         21.5980    32.3900    15.9870 C.3          1 55A102   0.0000
    15 C14         22.1190    32.3490    14.5460 C.3          1 55A102   0.0000
    16 C15         22.2570    33.4220    16.9330 C.3          1 55A102   0.0000
    17 C16         19.0880    30.4040    16.0550 C.3          1 55A102   0.0000
    18 C17         19.9690    29.2900    15.4700 C.3          1 55A102   0.0000
    19 C18         22.0950    34.8340    16.4080 C.3          1 55A102   0.0000
    20 O18         19.9790    28.1800    16.3950 O.3          1 55A102   0.0000
    21 C19         19.5130    28.8140    14.0790 C.3          1 55A102   0.0000
    22 N20         20.5730    28.0400    13.4510 N.am         1 55A102   0.0000
    23 C32         18.2070    27.9990    14.0690 C.3          1 55A102   0.0000
    24 C33         18.1190    26.3160    12.1770 C.ar         1 55A102   0.0000
    25 C34         17.8560    25.9870    10.8520 C.ar         1 55A102   0.0000
    26 C35         17.3470    26.9480     9.9940 C.ar         1 55A102   0.0000
    27 C36         17.1170    28.2390    10.4410 C.ar         1 55A102   0.0000
    28 C37         17.3850    28.5640    11.7570 C.ar         1 55A102   0.0000
    29 C38         17.8890    27.6060    12.6320 C.ar         1 55A102   0.0000
    30 C1          15.4050    36.6220    18.3440 C.2          1 55A102   0.0000
    31 N1          14.9560    35.3540    18.4440 N.2          1 55A102   0.0000
    32 S1          16.6470    36.8740    17.1550 S.3          1 55A102   0.0000
    33 C2          15.5550    34.5220    17.5490 C.ar         1 55A102   0.0000
    34 C3          16.5070    35.2060    16.8000 C.ar         1 55A102   0.0000
    35 C4          17.2600    34.5030    15.8320 C.ar         1 55A102   0.0000
    36 C5          17.0690    33.1240    15.6120 C.ar         1 55A102   0.0000
    37 C6          16.0980    32.4700    16.3800 C.ar         1 55A102   0.0000
    38 C7          15.3630    33.1620    17.3410 C.ar         1 55A102   0.0000
    39 S8          17.9340    32.2120    14.5560 S.o2         1 55A102   0.0000
    40 O9          17.1910    31.0900    14.0820 O.2          1 55A102   0.0000
    41 O10         18.4520    33.0780    13.5290 O.2          1 55A102   0.0000
    42 H1          20.9855    25.5683     8.7441 H            1 55A102   0.0000
    43 H2          21.8219    24.1846     8.9734 H            1 55A102   0.0000
    44 H3          20.2758    24.2987     9.4865 H            1 55A102   0.0000
    45 H4          21.4597    27.1667     9.9604 H            1 55A102   0.0000
    46 H5          22.3497    26.6776    12.6544 H            1 55A102   0.0000
    47 H6          23.7814    28.6503    12.4092 H            1 55A102   0.0000
    48 H7          23.5833    28.4756    10.7977 H            1 55A102   0.0000
    49 H8          24.4018    26.1370    12.1507 H            1 55A102   0.0000
    50 H9          25.5282    25.9084    10.0419 H            1 55A102   0.0000
    51 H10         23.9405    26.2399     9.8524 H            1 55A102   0.0000
    52 H11         25.0506    27.4209     9.6534 H            1 55A102   0.0000
    53 H12         26.7068    26.6432    12.1712 H            1 55A102   0.0000
    54 H13         26.3905    28.1784    11.7132 H            1 55A102   0.0000
    55 H14         25.9267    27.6545    13.1887 H            1 55A102   0.0000
    56 H15         19.7843    32.6756    16.9507 H            1 55A102   0.0000
    57 H16         19.9292    33.5515    15.5801 H            1 55A102   0.0000
    58 H17         21.7437    31.4839    16.3841 H            1 55A102   0.0000
    59 H18         23.1033    32.1724    14.5523 H            1 55A102   0.0000
    60 H19         21.6529    31.6207    14.0436 H            1 55A102   0.0000
    61 H20         21.9407    33.2271    14.1020 H            1 55A102   0.0000
    62 H21         23.2319    33.2143    17.0129 H            1 55A102   0.0000
    63 H22         21.8277    33.3584    17.8339 H            1 55A102   0.0000
    64 H23         18.1266    30.1330    16.0072 H            1 55A102   0.0000
    65 H24         19.3412    30.5677    17.0085 H            1 55A102   0.0000
    66 H25         20.9027    29.6391    15.3904 H            1 55A102   0.0000
    67 H26         22.5299    35.4762    17.0392 H            1 55A102   0.0000
    68 H27         22.5262    34.9068    15.5087 H            1 55A102   0.0000
    69 H28         21.1220    35.0509    16.3297 H            1 55A102   0.0000
    70 H29         19.1131    28.1547    16.8947 H            1 55A102   0.0000
    71 H30         19.3630    29.6279    13.5177 H            1 55A102   0.0000
    72 H31         20.8085    27.1680    13.8801 H            1 55A102   0.0000
    73 H32         17.4615    28.5531    14.4394 H            1 55A102   0.0000
    74 H33         18.3193    27.1762    14.6261 H            1 55A102   0.0000
    75 H34         18.4744    25.6217    12.8028 H            1 55A102   0.0000
    76 H35         18.0335    25.0606    10.5198 H            1 55A102   0.0000
    77 H36         17.1440    26.7081     9.0447 H            1 55A102   0.0000
    78 H37         16.7591    28.9317     9.8148 H            1 55A102   0.0000
    79 H38         17.2157    29.4941    12.0831 H            1 55A102   0.0000
    80 H39         15.0489    37.3633    18.9129 H            1 55A102   0.0000
    81 H40         17.9429    34.9947    15.2917 H            1 55A102   0.0000
    82 H41         15.9298    31.4946    16.2373 H            1 55A102   0.0000
    83 H42         14.6862    32.6713    17.8899 H            1 55A102   0.0000
@<TRIPOS>BOND
     1    1    2       2
     2    1    3       1
     3    1    4      am
     4    4    5       1
     5    5    6       1
     6    5    8       1
     7    6    7       2
     8    6   22      am
     9    8    9       1
    10    9   10       1
    11    9   11       1
    12   12   13       1
    13   12   17       1
    14   12   39       1
    15   13   14       1
    16   14   15       1
    17   14   16       1
    18   16   19       1
    19   17   18       1
    20   18   20       1
    21   18   21       1
    22   21   22       1
    23   21   23       1
    24   23   29       1
    25   24   25      ar
    26   24   29      ar
    27   25   26      ar
    28   26   27      ar
    29   27   28      ar
    30   28   29      ar
    31   30   31       2
    32   30   32       1
    33   31   33       1
    34   32   34       1
    35   33   34      ar
    36   33   38      ar
    37   34   35      ar
    38   35   36      ar
    39   36   37      ar
    40   36   39       1
    41   37   38      ar
    42   39   40       2
    43   39   41       2
    44    3   42       1
    45    3   43       1
    46    3   44       1
    47    4   45       1
    48    5   46       1
    49    8   47       1
    50    8   48       1
    51    9   49       1
    52   10   50       1
    53   10   51       1
    54   10   52       1
    55   11   53       1
    56   11   54       1
    57   11   55       1
    58   13   56       1
    59   13   57       1
    60   14   58       1
    61   15   59       1
    62   15   60       1
    63   15   61       1
    64   16   62       1
    65   16   63       1
    66   17   64       1
    67   17   65       1
    68   18   66       1
    69   19   67       1
    70   19   68       1
    71   19   69       1
    72   20   70       1
    73   21   71       1
    74   22   72       1
    75   23   73       1
    76   23   74       1
    77   24   75       1
    78   25   76       1
    79   26   77       1
    80   27   78       1
    81   28   79       1
    82   30   80       1
    83   35   81       1
    84   37   82       1
    85   38   83       1
@<TRIPOS>SUBSTRUCTURE
     1 55A102      1 GROUP             4 A     55A     0 **** 55A A 102
