@<TRIPOS>MOLECULE
4cvb_PQQ_1_ligand
   29    31     1     0     0
SMALL
NO_CHARGES


@<TRIPOS>ATOM
     1 N1          18.2640    37.4870    19.1340 N.pl3        1 PQQ1608   0.0000
     2 C2          17.3900    36.7120    18.4440 C.2          1 PQQ1608   0.0000
     3 C2X         16.2470    35.9990    19.0390 C.2          1 PQQ1608   0.0000
     4 O2A         15.5280    35.2700    18.3100 O.2          1 PQQ1608   0.0000
     5 O2B         15.9870    36.2450    20.2360 O.3          1 PQQ1608   0.0000
     6 C3          17.6340    36.6900    17.0720 C.2          1 PQQ1608   0.0000
     7 C3A         18.7730    37.5190    16.9310 C.ar         1 PQQ1608   0.0000
     8 C1A         19.1570    38.0150    18.2740 C.ar         1 PQQ1608   0.0000
     9 C4          19.5480    37.9100    15.7300 C.ar         1 PQQ1608   0.0000
    10 O4          19.2340    37.4990    14.5810 O.3          1 PQQ1608   0.0000
    11 C5          20.6970    38.8050    15.9350 C.ar         1 PQQ1608   0.0000
    12 O5          21.3680    39.1430    14.9400 O.3          1 PQQ1608  -1.0000
    13 C6A         21.0200    39.2760    17.3230 C.ar         1 PQQ1608   0.0000
    14 N6          22.0600    40.0880    17.5520 N.ar         1 PQQ1608   0.0000
    15 C7          22.5360    40.5980    18.7030 C.ar         1 PQQ1608   0.0000
    16 C7X         23.7410    41.5090    18.6080 C.2          1 PQQ1608   0.0000
    17 O7A         24.1760    42.1180    19.6140 O.co2        1 PQQ1608   0.0000
    18 O7B         24.2600    41.7080    17.4760 O.co2        1 PQQ1608  -1.0000
    19 C8          21.8610    40.2650    19.8610 C.ar         1 PQQ1608   0.0000
    20 C9          20.7240    39.4350    19.7960 C.ar         1 PQQ1608   0.0000
    21 C9X         20.1550    39.0520    21.1070 C.2          1 PQQ1608   0.0000
    22 O9A         20.9760    39.2660    22.0370 O.co2        1 PQQ1608   0.0000
    23 O9B         19.1320    38.3390    21.2330 O.co2        1 PQQ1608  -1.0000
    24 C9A         20.2410    38.8580    18.5000 C.ar         1 PQQ1608   0.0000
    25 H1          18.2481    37.6415    20.1219 H            1 PQQ1608   0.0000
    26 H2          17.1269    36.2055    16.3591 H            1 PQQ1608   0.0000
    27 H3          18.4458    36.8947    14.4642 H            1 PQQ1608   0.0000
    28 H4          22.1784    40.6121    20.7435 H            1 PQQ1608   0.0000
    29 H2B         15.2205    35.7864    20.6856 H            1 PQQ1608   0.0000
@<TRIPOS>BOND
     1    1    2       1
     2    1    8       1
     3    2    3       1
     4    2    6       2
     5    3    4       2
     6    3    5       1
     7    6    7       1
     8    7    8      ar
     9    7    9      ar
    10    8   24      ar
    11    9   10       1
    12    9   11      ar
    13   11   12       1
    14   11   13      ar
    15   13   14      ar
    16   13   24      ar
    17   14   15      ar
    18   15   16       1
    19   15   19      ar
    20   16   17      ar
    21   16   18      ar
    22   19   20      ar
    23   20   21       1
    24   20   24      ar
    25   21   22      ar
    26   21   23      ar
    27    1   25       1
    28   19   28       1
    29    6   26       1
    30   10   27       1
    31    5   29       1
@<TRIPOS>SUBSTRUCTURE
     1 PQQ1608     1 GROUP             4 A     PQQ     0 **** PQQ A1608
