@<TRIPOS>MOLECULE
3fpa_DTB_1_ligand
   32    32     1     0     0
SMALL
NO_CHARGES


@<TRIPOS>ATOM
     1 CN          -7.6090    22.7970   -43.5580 C.2          1 DTB803   0.0000
     2 O           -7.9940    23.9040   -43.8800 O.2          1 DTB803   0.0000
     3 N2          -7.6400    22.3170   -42.3290 N.am         1 DTB803   0.0000
     4 CR          -7.6530    20.8600   -42.3210 C.3          1 DTB803   0.0000
     5 CS          -7.2530    20.5460   -43.7700 C.3          1 DTB803   0.0000
     6 N1          -7.1390    21.8770   -44.3800 N.am         1 DTB803   0.0000
     7 CT          -5.9570    19.7470   -43.8650 C.3          1 DTB803   0.0000
     8 CE          -6.6250    20.4130   -41.2990 C.3          1 DTB803   0.0000
     9 CD          -7.2790    19.5240   -40.2550 C.3          1 DTB803   0.0000
    10 CG          -7.6330    20.3230   -39.0120 C.3          1 DTB803   0.0000
    11 CB          -8.7700    19.6520   -38.2520 C.3          1 DTB803   0.0000
    12 CA          -9.5220    20.6580   -37.3830 C.3          1 DTB803   0.0000
    13 C           -9.4580    20.2090   -35.9270 C.2          1 DTB803   0.0000
    14 OI1        -10.3760    20.6100   -35.1630 O.co2        1 DTB803   0.0000
    15 OI2         -8.5080    19.4520   -35.5610 O.co2        1 DTB803  -1.0000
    16 H1          -7.6530    22.8834   -41.5049 H            1 DTB803   0.0000
    17 HR          -8.5621    20.5030   -42.1064 H            1 DTB803   0.0000
    18 HS          -7.9901    20.0381   -44.2157 H            1 DTB803   0.0000
    19 H4          -6.7600    22.0601   -45.2871 H            1 DTB803   0.0000
    20 HT1         -5.7438    19.5707   -44.8260 H            1 DTB803   0.0000
    21 HT2         -5.2124    20.2688   -43.4487 H            1 DTB803   0.0000
    22 HT3         -6.0652    18.8777   -43.3826 H            1 DTB803   0.0000
    23 HE1         -6.2333    21.2165   -40.8507 H            1 DTB803   0.0000
    24 HE2         -5.8998    19.9023   -41.7609 H            1 DTB803   0.0000
    25 HD1         -6.6458    18.7916   -40.0048 H            1 DTB803   0.0000
    26 HD2         -8.1130    19.1271   -40.6382 H            1 DTB803   0.0000
    27 HG1         -7.9158    21.2434   -39.2820 H            1 DTB803   0.0000
    28 HG2         -6.8301    20.3815   -38.4187 H            1 DTB803   0.0000
    29 HB1         -8.3926    18.9338   -37.6674 H            1 DTB803   0.0000
    30 HB2         -9.4069    19.2473   -38.9082 H            1 DTB803   0.0000
    31 HA1        -10.4767    20.7058   -37.6766 H            1 DTB803   0.0000
    32 HA2         -9.0997    21.5599   -37.4738 H            1 DTB803   0.0000
@<TRIPOS>BOND
     1    1    2       2
     2    1    3      am
     3    1    6      am
     4    3    4       1
     5    4    5       1
     6    4    8       1
     7    5    6       1
     8    5    7       1
     9    8    9       1
    10    9   10       1
    11   10   11       1
    12   11   12       1
    13   12   13       1
    14   13   14      ar
    15   13   15      ar
    16    3   16       1
    17    4   17       1
    18    5   18       1
    19    6   19       1
    20    7   20       1
    21    7   21       1
    22    7   22       1
    23    8   23       1
    24    8   24       1
    25    9   25       1
    26    9   26       1
    27   10   27       1
    28   10   28       1
    29   11   29       1
    30   11   30       1
    31   12   31       1
    32   12   32       1
@<TRIPOS>SUBSTRUCTURE
     1 DTB803      1 GROUP             4 A     DTB     0 **** DTB A 803
