@<TRIPOS>MOLECULE
2we3_DUT_1_ligand
   39    40     1     0     0
SMALL
NO_CHARGES


@<TRIPOS>ATOM
     1 N1          26.0370    16.9220     4.4070 N.pl3        1 DUT1257   0.0000
     2 C2          25.2210    17.1540     3.2730 C.2          1 DUT1257   0.0000
     3 N3          25.7370    17.0960     2.0120 N.pl3        1 DUT1257   0.0000
     4 C4          27.0360    16.7770     1.8290 C.2          1 DUT1257   0.0000
     5 C5          27.8720    16.5580     2.9280 C.2          1 DUT1257   0.0000
     6 C6          27.3330    16.6370     4.1980 C.2          1 DUT1257   0.0000
     7 O2          24.0290    17.4260     3.4090 O.2          1 DUT1257   0.0000
     8 O4          27.5600    16.7420     0.5890 O.2          1 DUT1257   0.0000
     9 C1'         25.5140    16.9950     5.7970 C.3          1 DUT1257   0.0000
    10 C2'         25.6350    15.6700     6.5560 C.3          1 DUT1257   0.0000
    11 C3'         26.8000    15.8790     7.5280 C.3          1 DUT1257   0.0000
    12 C4'         26.7820    17.3900     7.7660 C.3          1 DUT1257   0.0000
    13 O4'         26.2470    17.9720     6.5700 O.3          1 DUT1257   0.0000
    14 O3'         26.6440    15.1020     8.7370 O.3          1 DUT1257   0.0000
    15 C5'         28.1600    18.0070     8.0590 C.3          1 DUT1257   0.0000
    16 O5'         28.9830    17.7640     6.9160 O.3          1 DUT1257   0.0000
    17 PA          30.5570    17.9530     7.0140 P.3          1 DUT1257   0.0000
    18 O1A         31.1600    17.6740     5.6660 O.co2        1 DUT1257   0.0000
    19 O2A         30.9860    17.2130     8.2280 O.co2        1 DUT1257  -1.0000
    20 O3A         30.5610    19.5620     7.3290 O.3          1 DUT1257   0.0000
    21 PB          31.7000    20.4010     8.1790 P.3          1 DUT1257   0.0000
    22 O1B         32.1940    21.5020     7.3180 O.co2        1 DUT1257   0.0000
    23 O2B         32.7010    19.4460     8.7320 O.co2        1 DUT1257  -1.0000
    24 O3B         30.7670    21.0110     9.3380 O.3          1 DUT1257   0.0000
    25 PG          30.5960    20.3410    10.7980 P.3          1 DUT1257   0.0000
    26 O1G         31.7480    20.9270    11.5690 O.co2        1 DUT1257   0.0000
    27 O2G         30.6300    18.8160    10.6540 O.co2        1 DUT1257  -1.0000
    28 O3G         29.2500    20.7470    11.3050 O.co2        1 DUT1257  -1.0000
    29 H1          25.1535    17.2897     1.2233 H            1 DUT1257   0.0000
    30 H2          28.8410    16.3483     2.7976 H            1 DUT1257   0.0000
    31 H3          27.9267    16.4769     4.9866 H            1 DUT1257   0.0000
    32 H1'         24.5511    17.2633     5.7664 H            1 DUT1257   0.0000
    33 H2'1        25.8331    14.9198     5.9252 H            1 DUT1257   0.0000
    34 H2'2        24.7914    15.4719     7.0551 H            1 DUT1257   0.0000
    35 H3'         27.6563    15.6245     7.0786 H            1 DUT1257   0.0000
    36 H4'         26.1671    17.5914     8.5285 H            1 DUT1257   0.0000
    37 H9          27.5453    14.8624     9.0979 H            1 DUT1257   0.0000
    38 H5'1        28.5622    17.5787     8.8682 H            1 DUT1257   0.0000
    39 H5'2        28.0692    18.9909     8.2130 H            1 DUT1257   0.0000
@<TRIPOS>BOND
     1    1    2       1
     2    1    6       1
     3    1    9       1
     4    2    3       1
     5    2    7       2
     6    3    4       1
     7    4    5       1
     8    4    8       2
     9    5    6       2
    10    9   10       1
    11    9   13       1
    12   10   11       1
    13   11   12       1
    14   11   14       1
    15   12   13       1
    16   12   15       1
    17   15   16       1
    18   16   17       1
    19   17   18      ar
    20   17   19      ar
    21   17   20       1
    22   20   21       1
    23   21   22      ar
    24   21   23      ar
    25   21   24       1
    26   24   25       1
    27   25   26      ar
    28   25   27      ar
    29   25   28      ar
    30    3   29       1
    31    5   30       1
    32    6   31       1
    33    9   32       1
    34   10   33       1
    35   10   34       1
    36   11   35       1
    37   12   36       1
    38   14   37       1
    39   15   38       1
    40   15   39       1
@<TRIPOS>SUBSTRUCTURE
     1 DUT1257     1 GROUP             4 A     DUT     0 **** DUT A1257
