@<TRIPOS>MOLECULE
2zat_NAP_3_ligand
   73    77     1     0     0
SMALL
NO_CHARGES


@<TRIPOS>ATOM
     1 PA          15.4390    10.1860    66.5920 P.3          1 NAP3261   0.0000
     2 O1A         14.4790    10.9950    67.3850 O.co2        1 NAP3261   0.0000
     3 O2A         14.7600     9.1590    65.6820 O.co2        1 NAP3261  -1.0000
     4 O5B         16.4570     9.4970    67.5800 O.3          1 NAP3261   0.0000
     5 C5B         17.1840    10.3090    68.4740 C.3          1 NAP3261   0.0000
     6 C4B         18.2370     9.3900    69.0410 C.3          1 NAP3261   0.0000
     7 O4B         19.2290    10.1280    69.7080 O.3          1 NAP3261   0.0000
     8 C3B         17.6820     8.4590    70.1000 C.3          1 NAP3261   0.0000
     9 O3B         18.3920     7.2570    69.9080 O.3          1 NAP3261   0.0000
    10 C2B         18.0460     9.1210    71.4110 C.3          1 NAP3261   0.0000
    11 O2B         18.0690     8.1360    72.4420 O.3          1 NAP3261   0.0000
    12 C1B         19.4120     9.6920    71.0530 C.3          1 NAP3261   0.0000
    13 N9A         19.9110    10.8480    71.7910 N.pl3        1 NAP3261   0.0000
    14 C8A         19.3230    12.0870    71.9880 C.2          1 NAP3261   0.0000
    15 N7A         20.1810    12.8880    72.6450 N.2          1 NAP3261   0.0000
    16 C5A         21.3300    12.1900    72.8730 C.ar         1 NAP3261   0.0000
    17 C6A         22.5470    12.5010    73.4980 C.ar         1 NAP3261   0.0000
    18 N6A         22.7850    13.6730    74.0560 N.pl3        1 NAP3261   0.0000
    19 N1A         23.5580    11.5550    73.5590 N.ar         1 NAP3261   0.0000
    20 C2A         23.3190    10.3160    72.9960 C.ar         1 NAP3261   0.0000
    21 N3A         22.1410     9.9740    72.3610 N.ar         1 NAP3261   0.0000
    22 C4A         21.1620    10.9200    72.3180 C.ar         1 NAP3261   0.0000
    23 O3          16.4520    11.2260    65.8320 O.3          1 NAP3261   0.0000
    24 PN          16.8690    11.3750    64.2660 P.3          1 NAP3261   0.0000
    25 O1N         15.8660    12.2820    63.6480 O.co2        1 NAP3261   0.0000
    26 O2N         17.1340    10.1020    63.6140 O.co2        1 NAP3261  -1.0000
    27 O5D         18.2510    12.2090    64.3980 O.3          1 NAP3261   0.0000
    28 C5D         19.4960    11.6700    63.9710 C.3          1 NAP3261   0.0000
    29 C4D         20.3870    12.7160    63.3270 C.3          1 NAP3261   0.0000
    30 O4D         19.8200    13.0380    62.0860 O.3          1 NAP3261   0.0000
    31 C3D         20.5080    14.0110    64.1360 C.3          1 NAP3261   0.0000
    32 O3D         21.8310    14.5260    64.0480 O.3          1 NAP3261   0.0000
    33 C2D         19.5420    14.9360    63.4290 C.3          1 NAP3261   0.0000
    34 O2D         19.8580    16.3020    63.6270 O.3          1 NAP3261   0.0000
    35 C1D         19.7340    14.4570    61.9940 C.3          1 NAP3261   0.0000
    36 N1N         18.6670    14.8530    61.0630 N.ar         1 NAP3261   1.0000
    37 C2N         17.4410    14.2510    61.0440 C.ar         1 NAP3261   0.0000
    38 C3N         16.5160    14.6930    60.0990 C.ar         1 NAP3261   0.0000
    39 C7N         15.1130    14.2280    60.1000 C.2          1 NAP3261   0.0000
    40 O7N         14.2640    14.8700    59.1730 O.2          1 NAP3261   0.0000
    41 N7N         14.7260    13.2680    60.9420 N.am         1 NAP3261   0.0000
    42 C4N         16.8140    15.7270    59.2180 C.ar         1 NAP3261   0.0000
    43 C5N         18.0650    16.3020    59.2440 C.ar         1 NAP3261   0.0000
    44 C6N         18.9820    15.8590    60.1890 C.ar         1 NAP3261   0.0000
    45 P2B         18.0170     8.5150    74.0270 P.3          1 NAP3261   0.0000
    46 O1X         18.0400     7.1950    74.7080 O.co2        1 NAP3261   0.0000
    47 O2X         16.7050     9.2750    74.3110 O.co2        1 NAP3261  -1.0000
    48 O3X         19.2170     9.3720    74.3570 O.co2        1 NAP3261  -1.0000
    49 H5B1        16.5900    10.6571    69.1993 H            1 NAP3261   0.0000
    50 H5B2        17.6063    11.0766    67.9918 H            1 NAP3261   0.0000
    51 H4B         18.6513     8.8554    68.3044 H            1 NAP3261   0.0000
    52 H3B         16.6947     8.3305    70.0062 H            1 NAP3261   0.0000
    53 H5          18.0842     6.5779    70.5744 H            1 NAP3261   0.0000
    54 H2B         17.4009     9.8526    71.6317 H            1 NAP3261   0.0000
    55 H1B         20.0948     8.9618    71.0765 H            1 NAP3261   0.0000
    56 H8A         18.4045    12.3453    71.6886 H            1 NAP3261   0.0000
    57 H6A1        23.6682    13.8498    74.4904 H            1 NAP3261   0.0000
    58 H6A2        22.0822    14.3843    74.0444 H            1 NAP3261   0.0000
    59 H2A         24.0412     9.6265    73.0515 H            1 NAP3261   0.0000
    60 H5D1        19.3208    10.9437    63.3063 H            1 NAP3261   0.0000
    61 H5D2        19.9701    11.2884    64.7645 H            1 NAP3261   0.0000
    62 H4D         21.2983    12.3302    63.1834 H            1 NAP3261   0.0000
    63 H3D         20.2391    13.8679    65.0885 H            1 NAP3261   0.0000
    64 H16         22.2307    14.2694    63.1680 H            1 NAP3261   0.0000
    65 H2D         18.6065    14.7521    63.7307 H            1 NAP3261   0.0000
    66 H18         19.8277    16.5129    64.6040 H            1 NAP3261   0.0000
    67 H1D         20.6051    14.8096    61.6521 H            1 NAP3261   0.0000
    68 H2N         17.2146    13.5184    61.6859 H            1 NAP3261   0.0000
    69 H7N1        13.7763    12.9550    60.9409 H            1 NAP3261   0.0000
    70 H7N2        15.3857    12.8615    61.5741 H            1 NAP3261   0.0000
    71 H4N         16.1245    16.0507    58.5701 H            1 NAP3261   0.0000
    72 H5N         18.3084    17.0236    58.5960 H            1 NAP3261   0.0000
    73 H6N         19.8872    16.2818    60.2317 H            1 NAP3261   0.0000
@<TRIPOS>BOND
     1    1    2      ar
     2    1    3      ar
     3    1    4       1
     4    1   23       1
     5    4    5       1
     6    5    6       1
     7    6    7       1
     8    6    8       1
     9    7   12       1
    10    8    9       1
    11    8   10       1
    12   10   11       1
    13   10   12       1
    14   11   45       1
    15   12   13       1
    16   13   14       1
    17   13   22       1
    18   14   15       2
    19   15   16       1
    20   16   17      ar
    21   16   22      ar
    22   17   18       1
    23   17   19      ar
    24   19   20      ar
    25   20   21      ar
    26   21   22      ar
    27   23   24       1
    28   24   25      ar
    29   24   26      ar
    30   24   27       1
    31   27   28       1
    32   28   29       1
    33   29   30       1
    34   29   31       1
    35   30   35       1
    36   31   32       1
    37   31   33       1
    38   33   34       1
    39   33   35       1
    40   35   36       1
    41   36   37      ar
    42   36   44      ar
    43   37   38      ar
    44   38   39       1
    45   38   42      ar
    46   39   40       2
    47   39   41      am
    48   42   43      ar
    49   43   44      ar
    50   45   46      ar
    51   45   47      ar
    52   45   48      ar
    53   43   72       1
    54    5   49       1
    55    5   50       1
    56    6   51       1
    57    8   52       1
    58    9   53       1
    59   10   54       1
    60   12   55       1
    61   14   56       1
    62   18   57       1
    63   18   58       1
    64   20   59       1
    65   44   73       1
    66   28   60       1
    67   28   61       1
    68   29   62       1
    69   31   63       1
    70   32   64       1
    71   33   65       1
    72   34   66       1
    73   35   67       1
    74   37   68       1
    75   41   69       1
    76   41   70       1
    77   42   71       1
@<TRIPOS>SUBSTRUCTURE
     1 NAP3261     1 GROUP             4 C     NAP     0 **** NAP C3261
