@<TRIPOS>MOLECULE
3wfj_NAD_3_ligand
   70    74     1     0     0
SMALL
NO_CHARGES


@<TRIPOS>ATOM
     1 PA          27.2250    12.6370   114.8830 P.3          1 NAD401   0.0000
     2 O1A         26.0980    12.9570   113.8540 O.co2        1 NAD401   0.0000
     3 O2A         28.1580    11.5310   114.3390 O.co2        1 NAD401  -1.0000
     4 O5B         26.2070    12.2450   116.0020 O.3          1 NAD401   0.0000
     5 C5B         25.5370    13.5110   116.2400 C.3          1 NAD401   0.0000
     6 C4B         24.1270    13.3610   116.8090 C.3          1 NAD401   0.0000
     7 O4B         23.2910    12.8010   115.8020 O.3          1 NAD401   0.0000
     8 C3B         24.0870    12.4980   118.0570 C.3          1 NAD401   0.0000
     9 O3B         22.9480    12.6650   118.8450 O.3          1 NAD401   0.0000
    10 C2B         23.7960    11.1840   117.4670 C.3          1 NAD401   0.0000
    11 O2B         22.9690    10.6020   118.4100 O.3          1 NAD401   0.0000
    12 C1B         22.9440    11.4670   116.2520 C.3          1 NAD401   0.0000
    13 N9A         22.9790    10.4200   115.0960 N.pl3        1 NAD401   0.0000
    14 C8A         23.8960     9.7120   114.3180 C.2          1 NAD401   0.0000
    15 N7A         23.2900     8.9160   113.3300 N.2          1 NAD401   0.0000
    16 C5A         21.9760     9.1320   113.5720 C.ar         1 NAD401   0.0000
    17 C6A         20.6900     8.6910   113.0110 C.ar         1 NAD401   0.0000
    18 N6A         20.6420     7.8200   111.9810 N.pl3        1 NAD401   0.0000
    19 N1A         19.5590     9.2060   113.4750 N.ar         1 NAD401   0.0000
    20 C2A         19.4860    10.0930   114.4850 C.ar         1 NAD401   0.0000
    21 N3A         20.5740    10.5850   115.1070 N.ar         1 NAD401   0.0000
    22 C4A         21.7900    10.0870   114.6650 C.ar         1 NAD401   0.0000
    23 O3          27.7340    14.0810   115.4360 O.3          1 NAD401   0.0000
    24 PN          29.1970    14.2350   116.1610 P.3          1 NAD401   0.0000
    25 O1N         30.1860    13.5720   115.2500 O.co2        1 NAD401   0.0000
    26 O2N         29.0740    13.9640   117.7620 O.co2        1 NAD401  -1.0000
    27 O5D         29.5640    15.7930   115.8720 O.3          1 NAD401   0.0000
    28 C5D         28.9650    16.6760   116.8650 C.3          1 NAD401   0.0000
    29 C4D         29.4290    18.1220   116.8260 C.3          1 NAD401   0.0000
    30 O4D         30.8550    18.2770   117.0360 O.3          1 NAD401   0.0000
    31 C3D         29.1260    18.6380   115.4470 C.3          1 NAD401   0.0000
    32 O3D         28.9460    20.0730   115.5010 O.3          1 NAD401   0.0000
    33 C2D         30.4190    18.1960   114.7300 C.3          1 NAD401   0.0000
    34 O2D         30.7180    18.9680   113.5970 O.3          1 NAD401   0.0000
    35 C1D         31.4770    18.4330   115.7770 C.3          1 NAD401   0.0000
    36 N1N         32.7590    17.7380   115.5810 N.ar         1 NAD401   1.0000
    37 C2N         32.8850    16.4190   115.2750 C.ar         1 NAD401   0.0000
    38 C3N         34.1760    15.8150   115.0690 C.ar         1 NAD401   0.0000
    39 C7N         34.3800    14.3280   114.8120 C.2          1 NAD401   0.0000
    40 O7N         35.5310    13.8130   114.8350 O.2          1 NAD401   0.0000
    41 N7N         33.3110    13.5560   114.6520 N.am         1 NAD401   0.0000
    42 C4N         35.3120    16.6420   115.1890 C.ar         1 NAD401   0.0000
    43 C5N         35.1640    18.0220   115.5020 C.ar         1 NAD401   0.0000
    44 C6N         33.8900    18.5280   115.6920 C.ar         1 NAD401   0.0000
    45 H5B1        25.4767    14.0045   115.3723 H            1 NAD401   0.0000
    46 H5B2        26.0842    14.0412   116.8876 H            1 NAD401   0.0000
    47 H4B         23.7798    14.2698   117.0404 H            1 NAD401   0.0000
    48 H3B         24.9385    12.5181   118.5809 H            1 NAD401   0.0000
    49 H5          23.1765    12.4896   119.8026 H            1 NAD401   0.0000
    50 H2B         24.6143    10.6457   117.2655 H            1 NAD401   0.0000
    51 H7          23.2012    10.9511   119.3179 H            1 NAD401   0.0000
    52 H1B         21.9970    11.5099   116.5704 H            1 NAD401   0.0000
    53 H8A         24.8858     9.7655   114.4501 H            1 NAD401   0.0000
    54 H6A1        19.7589     7.5306   111.6116 H            1 NAD401   0.0000
    55 H6A2        21.4895     7.4641   111.5873 H            1 NAD401   0.0000
    56 H2A         18.5834    10.4002   114.7867 H            1 NAD401   0.0000
    57 H5D1        29.1781    16.3093   117.7706 H            1 NAD401   0.0000
    58 H5D2        27.9747    16.6673   116.7264 H            1 NAD401   0.0000
    59 H4D         28.9268    18.6570   117.5054 H            1 NAD401   0.0000
    60 H3D         28.3230    18.1859   115.0587 H            1 NAD401   0.0000
    61 H17         28.3049    20.3556   114.7874 H            1 NAD401   0.0000
    62 H2D         30.3733    17.2260   114.4911 H            1 NAD401   0.0000
    63 H19         29.8690    19.3034   113.1886 H            1 NAD401   0.0000
    64 H1D         31.6951    19.4068   115.7122 H            1 NAD401   0.0000
    65 H2N         32.0629    15.8559   115.1912 H            1 NAD401   0.0000
    66 H7N1        33.4223    12.5768   114.4822 H            1 NAD401   0.0000
    67 H7N2        32.3949    13.9540   114.7013 H            1 NAD401   0.0000
    68 H4N         36.2249    16.2570   115.0536 H            1 NAD401   0.0000
    69 H5N         35.9652    18.6149   115.5831 H            1 NAD401   0.0000
    70 H6N         33.7830    19.4965   115.9169 H            1 NAD401   0.0000
@<TRIPOS>BOND
     1    1    2      ar
     2    1    3      ar
     3    1    4       1
     4    1   23       1
     5    4    5       1
     6    5    6       1
     7    6    7       1
     8    6    8       1
     9    7   12       1
    10    8    9       1
    11    8   10       1
    12   10   11       1
    13   10   12       1
    14   12   13       1
    15   13   14       1
    16   13   22       1
    17   14   15       2
    18   15   16       1
    19   16   17      ar
    20   16   22      ar
    21   17   18       1
    22   17   19      ar
    23   19   20      ar
    24   20   21      ar
    25   21   22      ar
    26   23   24       1
    27   24   25      ar
    28   24   26      ar
    29   24   27       1
    30   27   28       1
    31   28   29       1
    32   29   30       1
    33   29   31       1
    34   30   35       1
    35   31   32       1
    36   31   33       1
    37   33   34       1
    38   33   35       1
    39   35   36       1
    40   36   37      ar
    41   36   44      ar
    42   37   38      ar
    43   38   39       1
    44   38   42      ar
    45   39   40       2
    46   39   41      am
    47   42   43      ar
    48   43   44      ar
    49   44   70       1
    50    5   45       1
    51    5   46       1
    52    6   47       1
    53    8   48       1
    54    9   49       1
    55   10   50       1
    56   11   51       1
    57   12   52       1
    58   14   53       1
    59   18   54       1
    60   18   55       1
    61   20   56       1
    62   43   69       1
    63   28   57       1
    64   28   58       1
    65   29   59       1
    66   31   60       1
    67   32   61       1
    68   33   62       1
    69   34   63       1
    70   35   64       1
    71   37   65       1
    72   41   66       1
    73   41   67       1
    74   42   68       1
@<TRIPOS>SUBSTRUCTURE
     1 NAD401      1 GROUP             4 C     NAD     0 **** NAD C 401
