@<TRIPOS>MOLECULE
3ijw_ACO_2_ligand
   80    82     1     0     0
SMALL
NO_CHARGES


@<TRIPOS>ATOM
     1 N1A         15.8230   -13.5580     3.1710 N.ar         1 ACO266   0.0000
     2 C2A         16.5850   -13.7950     4.2420 C.ar         1 ACO266   0.0000
     3 N3A         17.2720   -12.8670     4.8770 N.ar         1 ACO266   0.0000
     4 C4A         17.2210   -11.6050     4.4700 C.ar         1 ACO266   0.0000
     5 C5A         16.3830   -11.2500     3.3370 C.ar         1 ACO266   0.0000
     6 C6A         15.6770   -12.3440     2.6780 C.ar         1 ACO266   0.0000
     7 N6A         14.8820   -12.1490     1.6330 N.pl3        1 ACO266   0.0000
     8 N7A         16.5010    -9.9510     3.1770 N.2          1 ACO266   0.0000
     9 C8A         17.3310    -9.5300     4.1330 C.2          1 ACO266   0.0000
    10 N9A         17.7630   -10.5100     4.8950 N.pl3        1 ACO266   0.0000
    11 C1B         18.6590   -10.4430     6.0540 C.3          1 ACO266   0.0000
    12 C2B         19.7310    -9.3920     6.0640 C.3          1 ACO266   0.0000
    13 O2B         20.8860   -10.1690     6.2860 O.3          1 ACO266   0.0000
    14 C3B         19.5710    -8.6810     7.3850 C.3          1 ACO266   0.0000
    15 O3B         19.3140    -7.2950     7.3880 O.3          1 ACO266   0.0000
    16 P3B         20.4160    -6.1690     7.1920 P.3          1 ACO266   0.0000
    17 O7A         21.6910    -6.7240     7.6390 O.co2        1 ACO266   0.0000
    18 O8A         20.2780    -6.0100     5.7250 O.co2        1 ACO266  -1.0000
    19 O9A         20.0310    -4.9640     7.9500 O.co2        1 ACO266  -1.0000
    20 C4B         18.5040    -9.4300     8.1140 C.3          1 ACO266   0.0000
    21 O4B         17.8990   -10.2790     7.2000 O.3          1 ACO266   0.0000
    22 C5B         17.4460    -8.5960     8.7670 C.3          1 ACO266   0.0000
    23 O5B         16.7830    -9.5220     9.6110 O.3          1 ACO266   0.0000
    24 P1A         16.6800    -9.3420    11.1600 P.3          1 ACO266   0.0000
    25 O1A         15.9470   -10.3980    11.7710 O.co2        1 ACO266   0.0000
    26 O2A         16.2750    -7.9760    11.3050 O.co2        1 ACO266  -1.0000
    27 O3A         18.1520    -9.3300    11.7130 O.3          1 ACO266   0.0000
    28 P2A         19.0810   -10.5570    12.0270 P.3          1 ACO266   0.0000
    29 O4A         20.4730   -10.1350    11.8920 O.co2        1 ACO266   0.0000
    30 O5A         18.5880   -11.7040    11.3130 O.co2        1 ACO266  -1.0000
    31 O6A         18.8940   -10.7790    13.5490 O.3          1 ACO266   0.0000
    32 CBP         18.0430    -9.7590    15.5770 C.3          1 ACO266   0.0000
    33 CCP         19.0790    -9.7260    14.4630 C.3          1 ACO266   0.0000
    34 CDP         16.6980    -9.3510    15.0270 C.3          1 ACO266   0.0000
    35 CEP         18.3910    -8.7520    16.6560 C.3          1 ACO266   0.0000
    36 CAP         17.9410   -11.1530    16.1550 C.3          1 ACO266   0.0000
    37 OAP         19.2110   -11.7040    16.4370 O.3          1 ACO266   0.0000
    38 C9P         17.1780   -11.1590    17.4250 C.2          1 ACO266   0.0000
    39 O9P         17.7660   -11.0880    18.4590 O.2          1 ACO266   0.0000
    40 N8P         15.8830   -11.2550    17.3180 N.am         1 ACO266   0.0000
    41 C7P         15.0180   -11.3900    18.4540 C.3          1 ACO266   0.0000
    42 C6P         14.5180   -10.0440    18.9160 C.3          1 ACO266   0.0000
    43 C5P         13.6080   -10.2340    20.0880 C.2          1 ACO266   0.0000
    44 O5P         12.5320   -10.7000    19.9410 O.2          1 ACO266   0.0000
    45 N4P         14.1100    -9.8090    21.2260 N.am         1 ACO266   0.0000
    46 C3P         13.4200    -9.8540    22.4960 C.3          1 ACO266   0.0000
    47 C2P         14.2250    -9.1550    23.5710 C.3          1 ACO266   0.0000
    48 S1P         13.2830    -8.9660    25.0300 S.3          1 ACO266   0.0000
    49 H2A         16.6373   -14.7337     4.5827 H            1 ACO266   0.0000
    50 H6A1        14.7683   -11.2299     1.2558 H            1 ACO266   0.0000
    51 H6A2        14.3968   -12.9212     1.2229 H            1 ACO266   0.0000
    52 H8A         17.5955    -8.5735     4.2563 H            1 ACO266   0.0000
    53 H1B         19.1147   -11.3302     6.1265 H            1 ACO266   0.0000
    54 H2B         19.7598    -8.8002     5.2584 H            1 ACO266   0.0000
    55 H7          21.6884    -9.5729     6.3146 H            1 ACO266   0.0000
    56 H3B         20.4210    -8.8192     7.8933 H            1 ACO266   0.0000
    57 H4B         18.9405    -9.9893     8.8188 H            1 ACO266   0.0000
    58 H5B1        16.8182    -8.2159     8.0877 H            1 ACO266   0.0000
    59 H5B2        17.8520    -7.8525     9.2985 H            1 ACO266   0.0000
    60 HCP1        19.0028    -8.8564    13.9752 H            1 ACO266   0.0000
    61 HCP2        19.9909    -9.8033    14.8661 H            1 ACO266   0.0000
    62 HDP1        16.0177    -9.3729    15.7596 H            1 ACO266   0.0000
    63 HDP2        16.7572    -8.4248    14.6547 H            1 ACO266   0.0000
    64 HDP3        16.4280    -9.9850    14.3023 H            1 ACO266   0.0000
    65 HEP1        17.7013    -8.7866    17.3792 H            1 ACO266   0.0000
    66 HEP2        19.2879    -8.9714    17.0400 H            1 ACO266   0.0000
    67 HEP3        18.4134    -7.8339    16.2604 H            1 ACO266   0.0000
    68 HAP         17.4736   -11.7418    15.4956 H            1 ACO266   0.0000
    69 H21         19.7472   -11.7541    15.5944 H            1 ACO266   0.0000
    70 H8P         15.4750   -11.2336    16.4053 H            1 ACO266   0.0000
    71 H7P1        15.5230   -11.8248    19.1996 H            1 ACO266   0.0000
    72 H7P2        14.2361   -11.9609    18.2036 H            1 ACO266   0.0000
    73 H6P1        14.0179    -9.5997    18.1727 H            1 ACO266   0.0000
    74 H6P2        15.2939    -9.4728    19.1839 H            1 ACO266   0.0000
    75 H4P         15.0343    -9.4276    21.2126 H            1 ACO266   0.0000
    76 H3P1        13.2805   -10.8085    22.7595 H            1 ACO266   0.0000
    77 H3P2        12.5334    -9.4007    22.4036 H            1 ACO266   0.0000
    78 H2P1        14.5001    -8.2525    23.2395 H            1 ACO266   0.0000
    79 H2P2        15.0397    -9.6977    23.7751 H            1 ACO266   0.0000
    80 H1P         13.8915    -8.9774    25.8235 H            1 ACO266   0.0000
@<TRIPOS>BOND
     1    1    2      ar
     2    1    6      ar
     3    2    3      ar
     4    3    4      ar
     5    4    5      ar
     6    4   10       1
     7    5    6      ar
     8    5    8       1
     9    6    7       1
    10    8    9       2
    11    9   10       1
    12   10   11       1
    13   11   12       1
    14   11   21       1
    15   12   13       1
    16   12   14       1
    17   14   15       1
    18   14   20       1
    19   15   16       1
    20   16   17      ar
    21   16   18      ar
    22   16   19      ar
    23   20   21       1
    24   20   22       1
    25   22   23       1
    26   23   24       1
    27   24   25      ar
    28   24   26      ar
    29   24   27       1
    30   27   28       1
    31   28   29      ar
    32   28   30      ar
    33   28   31       1
    34   31   33       1
    35   32   33       1
    36   32   34       1
    37   32   35       1
    38   32   36       1
    39   36   37       1
    40   36   38       1
    41   38   39       2
    42   38   40      am
    43   40   41       1
    44   41   42       1
    45   42   43       1
    46   43   44       2
    47   43   45      am
    48   45   46       1
    49   46   47       1
    50   47   48       1
    51    2   49       1
    52    7   50       1
    53    7   51       1
    54    9   52       1
    55   11   53       1
    56   12   54       1
    57   13   55       1
    58   14   56       1
    59   48   80       1
    60   47   79       1
    61   20   57       1
    62   22   58       1
    63   22   59       1
    64   47   78       1
    65   46   77       1
    66   33   60       1
    67   33   61       1
    68   34   62       1
    69   34   63       1
    70   34   64       1
    71   35   65       1
    72   35   66       1
    73   35   67       1
    74   36   68       1
    75   37   69       1
    76   40   70       1
    77   41   71       1
    78   41   72       1
    79   42   73       1
    80   42   74       1
    81   45   75       1
    82   46   76       1
@<TRIPOS>SUBSTRUCTURE
     1 ACO266      1 GROUP             4 B     ACO     0 **** ACO B 266
