@<TRIPOS>MOLECULE
3a9w_NAD_2_ligand
   70    74     1     0     0
SMALL
NO_CHARGES


@<TRIPOS>ATOM
     1 PA         -29.2590    29.9300    14.5600 P.3          1 NAD3002   0.0000
     2 O1A        -30.6310    29.5300    14.2230 O.co2        1 NAD3002   0.0000
     3 O2A        -28.3700    30.4250    13.4230 O.co2        1 NAD3002  -1.0000
     4 O5B        -29.3480    31.0100    15.7320 O.3          1 NAD3002   0.0000
     5 C5B        -28.1690    31.6250    16.1840 C.3          1 NAD3002   0.0000
     6 C4B        -28.5440    32.9720    16.8050 C.3          1 NAD3002   0.0000
     7 O4B        -27.3250    33.6170    17.1230 O.3          1 NAD3002   0.0000
     8 C3B        -29.3020    33.8930    15.8260 C.3          1 NAD3002   0.0000
     9 O3B        -30.6060    34.2150    16.3040 O.3          1 NAD3002   0.0000
    10 C2B        -28.3620    35.0810    15.6710 C.3          1 NAD3002   0.0000
    11 O2B        -28.9670    36.3410    15.4310 O.3          1 NAD3002   0.0000
    12 C1B        -27.6160    34.9890    16.9680 C.3          1 NAD3002   0.0000
    13 N9A        -26.3830    35.7870    17.1020 N.pl3        1 NAD3002   0.0000
    14 C8A        -25.3890    35.9960    16.1750 C.2          1 NAD3002   0.0000
    15 N7A        -24.4560    36.7940    16.7090 N.2          1 NAD3002   0.0000
    16 C5A        -24.8280    37.1070    17.9680 C.ar         1 NAD3002   0.0000
    17 C6A        -24.2660    37.8880    18.9930 C.ar         1 NAD3002   0.0000
    18 N6A        -23.1130    38.5220    18.8140 N.pl3        1 NAD3002   0.0000
    19 N1A        -24.9340    38.0010    20.2110 N.ar         1 NAD3002   0.0000
    20 C2A        -26.1510    37.3430    20.4190 C.ar         1 NAD3002   0.0000
    21 N3A        -26.7140    36.5700    19.4160 N.ar         1 NAD3002   0.0000
    22 C4A        -26.0510    36.4640    18.2210 C.ar         1 NAD3002   0.0000
    23 O3         -28.5220    28.6900    15.2590 O.3          1 NAD3002   0.0000
    24 PN         -29.2020    27.4050    15.9490 P.3          1 NAD3002   0.0000
    25 O1N        -30.3900    27.8060    16.7400 O.co2        1 NAD3002   0.0000
    26 O2N        -29.4060    26.4060    14.8840 O.co2        1 NAD3002  -1.0000
    27 O5D        -28.0200    26.8950    16.8810 O.3          1 NAD3002   0.0000
    28 C5D        -27.6430    27.6630    17.9930 C.3          1 NAD3002   0.0000
    29 C4D        -26.4950    26.9920    18.7290 C.3          1 NAD3002   0.0000
    30 O4D        -26.5770    25.5720    18.5680 O.3          1 NAD3002   0.0000
    31 C3D        -25.1280    27.3970    18.1920 C.3          1 NAD3002   0.0000
    32 O3D        -24.2030    27.5170    19.2680 O.3          1 NAD3002   0.0000
    33 C2D        -24.7970    26.2910    17.2380 C.3          1 NAD3002   0.0000
    34 O2D        -23.4340    26.2050    16.9140 O.3          1 NAD3002   0.0000
    35 C1D        -25.3780    25.0950    17.9800 C.3          1 NAD3002   0.0000
    36 N1N        -25.6620    23.9210    17.1100 N.ar         1 NAD3002   1.0000
    37 C2N        -26.7910    23.9470    16.2860 C.ar         1 NAD3002   0.0000
    38 C3N        -27.0570    22.8540    15.4550 C.ar         1 NAD3002   0.0000
    39 C7N        -28.2600    22.8670    14.5670 C.2          1 NAD3002   0.0000
    40 O7N        -28.4630    21.7730    13.7710 O.2          1 NAD3002   0.0000
    41 N7N        -29.1160    23.8610    14.5090 N.am         1 NAD3002   0.0000
    42 C4N        -26.1720    21.7440    15.4720 C.ar         1 NAD3002   0.0000
    43 C5N        -25.0440    21.7380    16.3090 C.ar         1 NAD3002   0.0000
    44 C6N        -24.8010    22.8440    17.1280 C.ar         1 NAD3002   0.0000
    45 H5B1       -27.5451    31.7679    15.4157 H            1 NAD3002   0.0000
    46 H5B2       -27.7265    31.0470    16.8697 H            1 NAD3002   0.0000
    47 H4B        -29.0853    32.8304    17.6339 H            1 NAD3002   0.0000
    48 H3B        -29.3858    33.4291    14.9441 H            1 NAD3002   0.0000
    49 H5         -30.5320    34.6850    17.1836 H            1 NAD3002   0.0000
    50 H2B        -27.7257    34.8870    14.9244 H            1 NAD3002   0.0000
    51 H7         -29.1530    36.7930    16.3034 H            1 NAD3002   0.0000
    52 H1B        -28.2392    35.2575    17.7025 H            1 NAD3002   0.0000
    53 H8A        -25.3667    35.6137    15.2512 H            1 NAD3002   0.0000
    54 H6A1       -22.7259    39.0738    19.5527 H            1 NAD3002   0.0000
    55 H6A2       -22.6318    38.4476    17.9405 H            1 NAD3002   0.0000
    56 H2A        -26.6184    37.4312    21.2986 H            1 NAD3002   0.0000
    57 H5D1       -28.4235    27.7543    18.6114 H            1 NAD3002   0.0000
    58 H5D2       -27.3535    28.5695    17.6856 H            1 NAD3002   0.0000
    59 H4D        -26.5485    27.2182    19.7016 H            1 NAD3002   0.0000
    60 H3D        -25.1963    28.2650    17.7002 H            1 NAD3002   0.0000
    61 H17        -24.2175    28.4540    19.6171 H            1 NAD3002   0.0000
    62 H2D        -25.3179    26.4286    16.3956 H            1 NAD3002   0.0000
    63 H19        -23.0225    27.1153    16.9594 H            1 NAD3002   0.0000
    64 H1D        -24.7453    24.8203    18.7040 H            1 NAD3002   0.0000
    65 H2N        -27.4019    24.7387    16.2907 H            1 NAD3002   0.0000
    66 H7N1       -29.9021    23.8086    13.8932 H            1 NAD3002   0.0000
    67 H7N2       -28.9818    24.6705    15.0806 H            1 NAD3002   0.0000
    68 H4N        -26.3537    20.9577    14.8815 H            1 NAD3002   0.0000
    69 H5N        -24.4238    20.9536    16.3187 H            1 NAD3002   0.0000
    70 H6N        -24.0012    22.8544    17.7282 H            1 NAD3002   0.0000
@<TRIPOS>BOND
     1    1    2      ar
     2    1    3      ar
     3    1    4       1
     4    1   23       1
     5    4    5       1
     6    5    6       1
     7    6    7       1
     8    6    8       1
     9    7   12       1
    10    8    9       1
    11    8   10       1
    12   10   11       1
    13   10   12       1
    14   12   13       1
    15   13   14       1
    16   13   22       1
    17   14   15       2
    18   15   16       1
    19   16   17      ar
    20   16   22      ar
    21   17   18       1
    22   17   19      ar
    23   19   20      ar
    24   20   21      ar
    25   21   22      ar
    26   23   24       1
    27   24   25      ar
    28   24   26      ar
    29   24   27       1
    30   27   28       1
    31   28   29       1
    32   29   30       1
    33   29   31       1
    34   30   35       1
    35   31   32       1
    36   31   33       1
    37   33   34       1
    38   33   35       1
    39   35   36       1
    40   36   37      ar
    41   36   44      ar
    42   37   38      ar
    43   38   39       1
    44   38   42      ar
    45   39   40       2
    46   39   41      am
    47   42   43      ar
    48   43   44      ar
    49   44   70       1
    50    5   45       1
    51    5   46       1
    52    6   47       1
    53    8   48       1
    54    9   49       1
    55   10   50       1
    56   11   51       1
    57   12   52       1
    58   14   53       1
    59   18   54       1
    60   18   55       1
    61   20   56       1
    62   43   69       1
    63   28   57       1
    64   28   58       1
    65   29   59       1
    66   31   60       1
    67   32   61       1
    68   33   62       1
    69   34   63       1
    70   35   64       1
    71   37   65       1
    72   41   66       1
    73   41   67       1
    74   42   68       1
@<TRIPOS>SUBSTRUCTURE
     1 NAD3002     1 GROUP             4 B     NAD     0 **** NAD B3002
