@<TRIPOS>MOLECULE
1aqu_EST_2_ligand
   44    47     1     0     0
SMALL
NO_CHARGES


@<TRIPOS>ATOM
     1 C1          12.8400    22.0220    32.6970 C.ar         1 EST303   0.0000
     2 C2          13.0180    21.4060    31.4340 C.ar         1 EST303   0.0000
     3 C3          13.7300    22.0880    30.4170 C.ar         1 EST303   0.0000
     4 O3          13.9050    21.4750    29.1890 O.3          1 EST303   0.0000
     5 C4          14.2610    23.3850    30.6490 C.ar         1 EST303   0.0000
     6 C5          14.0890    24.0290    31.9200 C.ar         1 EST303   0.0000
     7 C6          14.6710    25.4370    32.1400 C.3          1 EST303   0.0000
     8 C7          14.4210    26.0620    33.5470 C.3          1 EST303   0.0000
     9 C8          14.3310    25.0190    34.6720 C.3          1 EST303   0.0000
    10 C9          13.1680    23.9980    34.3600 C.3          1 EST303   0.0000
    11 C10         13.3630    23.3310    32.9760 C.ar         1 EST303   0.0000
    12 C11         13.0850    22.9680    35.5230 C.3          1 EST303   0.0000
    13 C12         12.8890    23.5940    36.9210 C.3          1 EST303   0.0000
    14 C13         14.0250    24.5780    37.2420 C.3          1 EST303   0.0000
    15 C14         14.0750    25.6780    36.0950 C.3          1 EST303   0.0000
    16 C15         14.9970    26.7360    36.7000 C.3          1 EST303   0.0000
    17 C16         14.5130    26.8330    38.2020 C.3          1 EST303   0.0000
    18 C17         13.7570    25.4900    38.4760 C.3          1 EST303   0.0000
    19 O17         14.0530    24.9560    39.7860 O.3          1 EST303   0.0000
    20 C18         15.3860    23.8170    37.4740 C.3          1 EST303   0.0000
    21 H1          12.3384    21.5343    33.4115 H            1 EST303   0.0000
    22 H2          12.6433    20.4951    31.2614 H            1 EST303   0.0000
    23 H3          14.4057    21.9453    28.4622 H            1 EST303   0.0000
    24 H4          14.7594    23.8538    29.9197 H            1 EST303   0.0000
    25 H5          14.2672    26.0461    31.4574 H            1 EST303   0.0000
    26 H6          15.6596    25.3861    31.9980 H            1 EST303   0.0000
    27 H7          13.5616    26.5725    33.5187 H            1 EST303   0.0000
    28 H8          15.1734    26.6873    33.7541 H            1 EST303   0.0000
    29 H9          15.1941    24.5152    34.7068 H            1 EST303   0.0000
    30 H10         12.3080    24.5078    34.3379 H            1 EST303   0.0000
    31 H11         13.9342    22.4400    35.5336 H            1 EST303   0.0000
    32 H12         12.3144    22.3564    35.3440 H            1 EST303   0.0000
    33 H13         12.8811    22.8670    37.6076 H            1 EST303   0.0000
    34 H14         12.0165    24.0822    36.9423 H            1 EST303   0.0000
    35 H15         13.1633    26.0871    36.0565 H            1 EST303   0.0000
    36 H16         14.8893    27.6134    36.2325 H            1 EST303   0.0000
    37 H17         15.9531    26.4472    36.6506 H            1 EST303   0.0000
    38 H18         13.8984    27.6125    38.3229 H            1 EST303   0.0000
    39 H19         15.2956    26.9269    38.8174 H            1 EST303   0.0000
    40 H20         12.7802    25.7040    38.4676 H            1 EST303   0.0000
    41 H21         14.7387    25.5305    40.2330 H            1 EST303   0.0000
    42 H22         16.1068    24.4786    37.6806 H            1 EST303   0.0000
    43 H23         15.2866    23.1822    38.2403 H            1 EST303   0.0000
    44 H24         15.6279    23.3074    36.6483 H            1 EST303   0.0000
@<TRIPOS>BOND
     1    1    2      ar
     2    1   11      ar
     3    2    3      ar
     4    3    4       1
     5    3    5      ar
     6    5    6      ar
     7    6    7       1
     8    6   11      ar
     9    7    8       1
    10    8    9       1
    11    9   10       1
    12    9   15       1
    13   10   11       1
    14   10   12       1
    15   12   13       1
    16   13   14       1
    17   14   15       1
    18   14   18       1
    19   14   20       1
    20   15   16       1
    21   16   17       1
    22   17   18       1
    23   18   19       1
    24    1   21       1
    25    2   22       1
    26    4   23       1
    27    5   24       1
    28    7   25       1
    29    7   26       1
    30    8   27       1
    31    8   28       1
    32    9   29       1
    33   10   30       1
    34   12   31       1
    35   12   32       1
    36   13   33       1
    37   13   34       1
    38   15   35       1
    39   16   36       1
    40   16   37       1
    41   17   38       1
    42   17   39       1
    43   18   40       1
    44   19   41       1
    45   20   42       1
    46   20   43       1
    47   20   44       1
@<TRIPOS>SUBSTRUCTURE
     1 EST303      1 GROUP             4 B     EST     0 **** EST B 303
