@<TRIPOS>MOLECULE
3dlc_SAM_1_ligand
   50    52     1     0     0
SMALL
NO_CHARGES


@<TRIPOS>ATOM
     1 N            2.1180     7.4490    16.7900 N.4          1 SAM220   1.0000
     2 CA           1.8070     7.9520    18.1530 C.3          1 SAM220   0.0000
     3 C            2.5560     9.2300    18.4130 C.2          1 SAM220   0.0000
     4 O            3.5310     9.5020    17.7090 O.co2        1 SAM220   0.0000
     5 OXT          2.2020     9.9310    19.3540 O.co2        1 SAM220  -1.0000
     6 CB           2.1020     6.8880    19.1930 C.3          1 SAM220   0.0000
     7 CG           3.5310     6.4650    19.3100 C.3          1 SAM220   0.0000
     8 SD           3.6750     5.1970    20.5850 S.3          1 SAM220   1.0000
     9 CE           5.3400     5.6000    21.0370 C.3          1 SAM220   0.0000
    10 C5'          3.8510     3.6050    19.6200 C.3          1 SAM220   0.0000
    11 C4'          2.5530     2.8800    19.1540 C.3          1 SAM220   0.0000
    12 O4'          2.6950     1.7830    18.1930 O.3          1 SAM220   0.0000
    13 C3'          1.6570     2.3820    20.3160 C.3          1 SAM220   0.0000
    14 O3'          0.4270     3.0340    20.2330 O.3          1 SAM220   0.0000
    15 C2'          1.5450     0.8800    20.0470 C.3          1 SAM220   0.0000
    16 O2'          0.3890     0.2310    20.5260 O.3          1 SAM220   0.0000
    17 C1'          1.7140     0.8070    18.5200 C.3          1 SAM220   0.0000
    18 N9           2.2090    -0.4890    18.0290 N.pl3        1 SAM220   0.0000
    19 C8           3.3500    -1.1370    18.4400 C.2          1 SAM220   0.0000
    20 N7           3.5450    -2.2650    17.7160 N.2          1 SAM220   0.0000
    21 C5           2.4940    -2.3510    16.8410 C.ar         1 SAM220   0.0000
    22 C6           2.1280    -3.2970    15.8800 C.ar         1 SAM220   0.0000
    23 N6           2.7850    -4.4500    15.6570 N.pl3        1 SAM220   0.0000
    24 N1           1.0300    -3.0300    15.1390 N.ar         1 SAM220   0.0000
    25 C2           0.2760    -1.9000    15.3540 C.ar         1 SAM220   0.0000
    26 N3           0.5570    -0.9820    16.3220 N.ar         1 SAM220   0.0000
    27 C4           1.6660    -1.2320    17.0150 C.ar         1 SAM220   0.0000
    28 H1           1.6163     6.5997    16.6256 H            1 SAM220   0.0000
    29 H2           1.8470     8.1328    16.1125 H            1 SAM220   0.0000
    30 HA           0.8287     8.1557    18.1901 H            1 SAM220   0.0000
    31 HB1          1.5610     6.0786    18.9647 H            1 SAM220   0.0000
    32 HB2          1.8137     7.2416    20.0829 H            1 SAM220   0.0000
    33 HG1          4.0936     7.2536    19.5582 H            1 SAM220   0.0000
    34 HG2          3.8427     6.0954    18.4346 H            1 SAM220   0.0000
    35 HE1          5.6439     4.9895    21.7684 H            1 SAM220   0.0000
    36 HE2          5.9369     5.4909    20.2421 H            1 SAM220   0.0000
    37 HE3          5.3790     6.5471    21.3556 H            1 SAM220   0.0000
    38 H5'1         4.3585     2.9638    20.1956 H            1 SAM220   0.0000
    39 H5'2         4.3854     3.8124    18.8006 H            1 SAM220   0.0000
    40 H4'          2.0135     3.5778    18.6828 H            1 SAM220   0.0000
    41 H3'          2.0921     2.5539    21.1998 H            1 SAM220   0.0000
    42 H15         -0.0030     2.8240    19.3549 H            1 SAM220   0.0000
    43 H2'          2.3385     0.4358    20.4631 H            1 SAM220   0.0000
    44 H17         -0.3226     0.2562    19.8238 H            1 SAM220   0.0000
    45 H1'          0.8489     1.0318    18.0716 H            1 SAM220   0.0000
    46 H19          3.9525    -0.8194    19.1722 H            1 SAM220   0.0000
    47 H20          2.4635    -5.0800    14.9501 H            1 SAM220   0.0000
    48 H21          3.5948    -4.6768    16.1982 H            1 SAM220   0.0000
    49 H22         -0.5202    -1.7435    14.7696 H            1 SAM220   0.0000
    50 H23          3.1000     7.2759    16.7146 H            1 SAM220   0.0000
@<TRIPOS>BOND
     1    1    2       1
     2    2    3       1
     3    2    6       1
     4    3    4      ar
     5    3    5      ar
     6    6    7       1
     7    7    8       1
     8    8    9       1
     9    8   10       1
    10   10   11       1
    11   11   12       1
    12   11   13       1
    13   12   17       1
    14   13   14       1
    15   13   15       1
    16   15   16       1
    17   15   17       1
    18   17   18       1
    19   18   19       1
    20   18   27       1
    21   19   20       2
    22   20   21       1
    23   21   22      ar
    24   21   27      ar
    25   22   23       1
    26   22   24      ar
    27   24   25      ar
    28   25   26      ar
    29   26   27      ar
    30    1   28       1
    31    1   29       1
    32    2   30       1
    33    1   50       1
    34    6   31       1
    35    6   32       1
    36    7   33       1
    37    7   34       1
    38    9   35       1
    39    9   36       1
    40    9   37       1
    41   10   38       1
    42   10   39       1
    43   11   40       1
    44   13   41       1
    45   14   42       1
    46   15   43       1
    47   16   44       1
    48   17   45       1
    49   19   46       1
    50   23   47       1
    51   23   48       1
    52   25   49       1
@<TRIPOS>SUBSTRUCTURE
     1 SAM220      1 GROUP             4 A     SAM     0 **** SAM A 220
