@<TRIPOS>MOLECULE
4ohw_ATP_1_ligand
   43    45     1     0     0
SMALL
NO_CHARGES


@<TRIPOS>ATOM
     1 PG          -9.2240    24.1770    11.0090 P.3          1 ATP501   0.0000
     2 O1G         -8.6510    25.5680    10.8740 O.co2        1 ATP501   0.0000
     3 O2G         -8.6140    23.3660    12.1210 O.co2        1 ATP501  -1.0000
     4 O3G        -10.7330    24.1170    10.9670 O.co2        1 ATP501  -1.0000
     5 PB          -9.3780    22.0960     9.0920 P.3          1 ATP501   0.0000
     6 O1B        -10.4170    22.4470     8.0590 O.co2        1 ATP501   0.0000
     7 O2B         -9.7590    21.2000    10.2410 O.co2        1 ATP501  -1.0000
     8 O3B         -8.7130    23.4490     9.6610 O.3          1 ATP501   0.0000
     9 PA          -7.6430    21.8580     6.8780 P.3          1 ATP501   0.0000
    10 O1A         -7.5390    23.3620     6.8150 O.co2        1 ATP501   0.0000
    11 O2A         -8.4790    21.1260     5.8640 O.co2        1 ATP501  -1.0000
    12 O3A         -8.1280    21.4200     8.3500 O.3          1 ATP501   0.0000
    13 O5'         -6.1640    21.2280     6.8860 O.3          1 ATP501   0.0000
    14 C5'         -5.1510    21.7610     7.7410 C.3          1 ATP501   0.0000
    15 C4'         -3.7890    21.6720     7.0560 C.3          1 ATP501   0.0000
    16 O4'         -3.4370    20.2970     6.8600 O.3          1 ATP501   0.0000
    17 C3'         -3.7820    22.3400     5.6870 C.3          1 ATP501   0.0000
    18 O3'         -2.5870    23.1170     5.5580 O.3          1 ATP501   0.0000
    19 C2'         -3.7760    21.1900     4.6970 C.3          1 ATP501   0.0000
    20 O2'         -3.0310    21.4890     3.5110 O.3          1 ATP501   0.0000
    21 C1'         -3.1420    20.0530     5.4810 C.3          1 ATP501   0.0000
    22 N9          -3.6740    18.7340     5.0620 N.pl3        1 ATP501   0.0000
    23 C8          -4.9650    18.3490     5.0420 C.2          1 ATP501   0.0000
    24 N7          -5.0870    17.0700     4.6050 N.2          1 ATP501   0.0000
    25 C5          -3.8500    16.6190     4.3380 C.ar         1 ATP501   0.0000
    26 C6          -3.2510    15.3570     3.8420 C.ar         1 ATP501   0.0000
    27 N6          -4.0220    14.2890     3.5330 N.pl3        1 ATP501   0.0000
    28 N1          -1.9050    15.3100     3.7090 N.ar         1 ATP501   0.0000
    29 C2          -1.1120    16.3580     4.0060 C.ar         1 ATP501   0.0000
    30 N3          -1.5880    17.5320     4.4590 N.ar         1 ATP501   0.0000
    31 C4          -2.9200    17.7200     4.6420 C.ar         1 ATP501   0.0000
    32 H5'1        -5.1279    21.2380     8.5930 H            1 ATP501   0.0000
    33 H5'2        -5.3581    22.7182     7.9430 H            1 ATP501   0.0000
    34 H4'         -3.1009    22.1071     7.6367 H            1 ATP501   0.0000
    35 H3'         -4.5936    22.9113     5.5649 H            1 ATP501   0.0000
    36 H5          -1.8567    22.6973     6.0970 H            1 ATP501   0.0000
    37 H2'         -4.7156    20.9493     4.4536 H            1 ATP501   0.0000
    38 H7          -2.0776    21.2154     3.6384 H            1 ATP501   0.0000
    39 H1'         -2.1513    20.0691     5.3459 H            1 ATP501   0.0000
    40 H9          -5.7326    18.9296     5.3135 H            1 ATP501   0.0000
    41 H10         -3.5988    13.4465     3.1998 H            1 ATP501   0.0000
    42 H11         -5.0151    14.3422     3.6378 H            1 ATP501   0.0000
    43 H12         -0.1244    16.2587     3.8841 H            1 ATP501   0.0000
@<TRIPOS>BOND
     1    1    2      ar
     2    1    3      ar
     3    1    4      ar
     4    1    8       1
     5    5    6      ar
     6    5    7      ar
     7    5    8       1
     8    5   12       1
     9    9   10      ar
    10    9   11      ar
    11    9   12       1
    12    9   13       1
    13   13   14       1
    14   14   15       1
    15   15   16       1
    16   15   17       1
    17   16   21       1
    18   17   18       1
    19   17   19       1
    20   19   20       1
    21   19   21       1
    22   21   22       1
    23   22   23       1
    24   22   31       1
    25   23   24       2
    26   24   25       1
    27   25   26      ar
    28   25   31      ar
    29   26   27       1
    30   26   28      ar
    31   28   29      ar
    32   29   30      ar
    33   30   31      ar
    34   29   43       1
    35   27   42       1
    36   27   41       1
    37   23   40       1
    38   14   32       1
    39   14   33       1
    40   15   34       1
    41   17   35       1
    42   18   36       1
    43   19   37       1
    44   20   38       1
    45   21   39       1
@<TRIPOS>SUBSTRUCTURE
     1 ATP501      1 GROUP             4 A     ATP     0 **** ATP A 501
