@<TRIPOS>MOLECULE
2v95_HCY_1_ligand
   56    59     1     0     0
SMALL
NO_CHARGES


@<TRIPOS>ATOM
     1 C1          48.5820   -15.4490    11.6480 C.3          1 HCY1375   0.0000
     2 C2          48.2050   -15.9160    13.0530 C.3          1 HCY1375   0.0000
     3 C3          47.8450   -14.7420    13.9420 C.2          1 HCY1375   0.0000
     4 C4          47.3990   -13.4700    13.3570 C.2          1 HCY1375   0.0000
     5 C5          47.3320   -13.2770    12.0330 C.2          1 HCY1375   0.0000
     6 C6          46.7390   -11.9790    11.5620 C.3          1 HCY1375   0.0000
     7 C7          47.6030   -11.3300    10.5020 C.3          1 HCY1375   0.0000
     8 C8          48.0930   -12.3230     9.4500 C.3          1 HCY1375   0.0000
     9 C9          48.7210   -13.5920    10.0340 C.3          1 HCY1375   0.0000
    10 C10         47.7780   -14.3270    11.0190 C.3          1 HCY1375   0.0000
    11 C12         50.3200   -13.7150     8.0270 C.3          1 HCY1375   0.0000
    12 C11         49.3900   -14.5050     8.9670 C.3          1 HCY1375   0.0000
    13 C13         49.7030   -12.4310     7.4760 C.3          1 HCY1375   0.0000
    14 C14         49.1530   -11.6100     8.6350 C.3          1 HCY1375   0.0000
    15 C15         48.7450   -10.3160     7.9860 C.3          1 HCY1375   0.0000
    16 C16         49.7270   -10.1140     6.8430 C.3          1 HCY1375   0.0000
    17 C17         50.5870   -11.3490     6.8060 C.3          1 HCY1375   0.0000
    18 C18         48.5830   -12.8420     6.5250 C.3          1 HCY1375   0.0000
    19 C19         46.5210   -14.8610    10.3270 C.3          1 HCY1375   0.0000
    20 C20         51.0570   -11.6140     5.3870 C.2          1 HCY1375   0.0000
    21 C21         52.0670   -12.6910     5.1590 C.3          1 HCY1375   0.0000
    22 O1          47.9230   -14.8280    15.1580 O.2          1 HCY1375   0.0000
    23 O2          48.4470   -15.2560     8.1840 O.3          1 HCY1375   0.0000
    24 O3          51.7500   -11.0380     7.6050 O.3          1 HCY1375   0.0000
    25 O4          50.6650   -10.9400     4.4420 O.2          1 HCY1375   0.0000
    26 O5          52.3370   -12.8140     3.7610 O.3          1 HCY1375   0.0000
    27 H1          48.5063   -16.2417    11.0431 H            1 HCY1375   0.0000
    28 H2          49.5344   -15.1462    11.6830 H            1 HCY1375   0.0000
    29 H3          48.9808   -16.4032    13.4541 H            1 HCY1375   0.0000
    30 H4          47.4197   -16.5322    12.9923 H            1 HCY1375   0.0000
    31 H5          47.1366   -12.7231    13.9679 H            1 HCY1375   0.0000
    32 H6          46.6571   -11.3571    12.3408 H            1 HCY1375   0.0000
    33 H7          45.8320   -12.1554    11.1795 H            1 HCY1375   0.0000
    34 H8          48.3979   -10.9167    10.9463 H            1 HCY1375   0.0000
    35 H9          47.0688   -10.6184    10.0457 H            1 HCY1375   0.0000
    36 H10         47.3313   -12.5754     8.8533 H            1 HCY1375   0.0000
    37 H11         49.4773   -13.2650    10.6006 H            1 HCY1375   0.0000
    38 H12         50.5612   -14.3040     7.2557 H            1 HCY1375   0.0000
    39 H13         51.1477   -13.4737     8.5337 H            1 HCY1375   0.0000
    40 H14         49.9582   -15.1653     9.4580 H            1 HCY1375   0.0000
    41 H15         49.9169   -11.4092     9.2483 H            1 HCY1375   0.0000
    42 H16         48.8076    -9.5614     8.6392 H            1 HCY1375   0.0000
    43 H17         47.8098   -10.3784     7.6375 H            1 HCY1375   0.0000
    44 H18         50.2899    -9.3042     7.0085 H            1 HCY1375   0.0000
    45 H19         49.2358   -10.0075     5.9785 H            1 HCY1375   0.0000
    46 H20         48.1534   -12.0239     6.1427 H            1 HCY1375   0.0000
    47 H21         48.9616   -13.3969     5.7842 H            1 HCY1375   0.0000
    48 H22         47.9000   -13.3746     7.0248 H            1 HCY1375   0.0000
    49 H23         46.0138   -14.0996     9.9233 H            1 HCY1375   0.0000
    50 H24         46.7841   -15.5046     9.6082 H            1 HCY1375   0.0000
    51 H25         45.9441   -15.3276    10.9974 H            1 HCY1375   0.0000
    52 H26         51.7110   -13.5587     5.5059 H            1 HCY1375   0.0000
    53 H27         52.9122   -12.4608     5.6413 H            1 HCY1375   0.0000
    54 H28         48.2681   -16.1334     8.6291 H            1 HCY1375   0.0000
    55 H29         52.3013   -11.8634     7.7266 H            1 HCY1375   0.0000
    56 H30         51.4927   -13.0450     3.2775 H            1 HCY1375   0.0000
@<TRIPOS>BOND
     1    1    2       1
     2    1   10       1
     3    2    3       1
     4    3    4       1
     5    3   22       2
     6    4    5       2
     7    5    6       1
     8    5   10       1
     9    6    7       1
    10    7    8       1
    11    8    9       1
    12    8   14       1
    13    9   10       1
    14    9   12       1
    15   10   19       1
    16   11   12       1
    17   11   13       1
    18   12   23       1
    19   13   14       1
    20   13   17       1
    21   13   18       1
    22   14   15       1
    23   15   16       1
    24   16   17       1
    25   17   20       1
    26   17   24       1
    27   20   21       1
    28   20   25       2
    29   21   26       1
    30    1   27       1
    31    1   28       1
    32    2   29       1
    33    2   30       1
    34    4   31       1
    35    6   32       1
    36    6   33       1
    37    7   34       1
    38    7   35       1
    39    8   36       1
    40    9   37       1
    41   11   38       1
    42   11   39       1
    43   12   40       1
    44   14   41       1
    45   15   42       1
    46   15   43       1
    47   16   44       1
    48   16   45       1
    49   18   46       1
    50   18   47       1
    51   18   48       1
    52   19   49       1
    53   19   50       1
    54   19   51       1
    55   21   52       1
    56   21   53       1
    57   23   54       1
    58   24   55       1
    59   26   56       1
@<TRIPOS>SUBSTRUCTURE
     1 HCY1375     1 GROUP             4 A     HCY     0 **** HCY A1375
