@<TRIPOS>MOLECULE
3t2w_BTN_1_ligand
   31    32     1     0     0
SMALL
NO_CHARGES


@<TRIPOS>ATOM
     1 C11         -6.4190   -26.4210    -3.9230 C.2          1 BTN600   0.0000
     2 O11         -6.6420   -27.6440    -3.7260 O.co2        1 BTN600   0.0000
     3 O12         -6.9470   -25.8890    -4.9220 O.co2        1 BTN600  -1.0000
     4 C10         -5.5200   -25.6040    -3.0020 C.3          1 BTN600   0.0000
     5 C9          -5.5530   -25.9500    -1.5090 C.3          1 BTN600   0.0000
     6 C8          -6.9470   -25.8560    -0.8700 C.3          1 BTN600   0.0000
     7 C7          -6.9460   -26.2140     0.6170 C.3          1 BTN600   0.0000
     8 C2          -8.3630   -25.9720     1.2150 C.3          1 BTN600   0.0000
     9 S1          -8.8250   -24.3380     1.3950 S.3          1 BTN600   0.0000
    10 C6         -10.3160   -24.9010     2.2590 C.3          1 BTN600   0.0000
    11 C5          -9.8080   -25.9850     3.2360 C.3          1 BTN600   0.0000
    12 N1          -9.2650   -25.4600     4.4710 N.am         1 BTN600   0.0000
    13 C3          -7.9570   -25.7900     4.5540 C.2          1 BTN600   0.0000
    14 O3          -7.1920   -25.4290     5.6400 O.2          1 BTN600   0.0000
    15 N2          -7.5250   -26.4390     3.4910 N.am         1 BTN600   0.0000
    16 C4          -8.6090   -26.6730     2.5540 C.3          1 BTN600   0.0000
    17 H1          -5.7856   -24.6444    -3.0950 H            1 BTN600   0.0000
    18 H2          -4.5785   -25.7214    -3.3179 H            1 BTN600   0.0000
    19 H3          -4.9444   -25.3192    -1.0276 H            1 BTN600   0.0000
    20 H4          -5.2193   -26.8860    -1.3968 H            1 BTN600   0.0000
    21 H5          -7.5604   -26.4840    -1.3489 H            1 BTN600   0.0000
    22 H6          -7.2824   -24.9195    -0.9724 H            1 BTN600   0.0000
    23 H7          -6.2806   -25.6418     1.0964 H            1 BTN600   0.0000
    24 H8          -6.6985   -27.1766     0.7271 H            1 BTN600   0.0000
    25 H9          -9.0104   -26.3742     0.5676 H            1 BTN600   0.0000
    26 H10        -10.9746   -25.2873     1.6132 H            1 BTN600   0.0000
    27 H11        -10.7419   -24.1464     2.7581 H            1 BTN600   0.0000
    28 H12        -10.5303   -26.6498     3.4266 H            1 BTN600   0.0000
    29 H13         -9.7758   -24.9370     5.1533 H            1 BTN600   0.0000
    30 H14         -8.7750   -27.6509     2.4272 H            1 BTN600   0.0000
    31 H15         -6.5790   -26.7306     3.3493 H            1 BTN600   0.0000
@<TRIPOS>BOND
     1    1    2      ar
     2    1    3      ar
     3    1    4       1
     4    4    5       1
     5    5    6       1
     6    6    7       1
     7    7    8       1
     8    8    9       1
     9    8   16       1
    10    9   10       1
    11   10   11       1
    12   11   12       1
    13   11   16       1
    14   12   13      am
    15   13   14       2
    16   13   15      am
    17   15   16       1
    18   16   30       1
    19    4   17       1
    20    4   18       1
    21    5   19       1
    22    5   20       1
    23    6   21       1
    24    6   22       1
    25    7   23       1
    26    7   24       1
    27    8   25       1
    28   10   26       1
    29   10   27       1
    30   11   28       1
    31   12   29       1
    32   15   31       1
@<TRIPOS>SUBSTRUCTURE
     1 BTN600      1 GROUP             4 A     BTN     0 **** BTN A 600
