@<TRIPOS>MOLECULE
3pz4_3PZ_1_ligand
   67    71     1     0     0
SMALL
NO_CHARGES


@<TRIPOS>ATOM
     1 C1          50.9050   -51.1910     5.1060 C.ar         1 3PZ429   0.0000
     2 N1          52.0640   -51.6440     2.2590 N.3          1 3PZ429   0.0000
     3 O1          50.3420   -52.9800     0.4590 O.2          1 3PZ429   0.0000
     4 S1          50.4420   -51.7140     1.3070 S.o2         1 3PZ429   0.0000
     5 C2          51.5220   -52.3400     4.6190 C.ar         1 3PZ429   0.0000
     6 N2          51.1800   -49.9790     4.6000 N.pl3        1 3PZ429   0.0000
     7 O2          50.3480   -50.5290     0.3730 O.2          1 3PZ429   0.0000
     8 C3          51.3130   -53.5590     5.2040 C.ar         1 3PZ429   0.0000
     9 N3          51.4840   -47.6490     7.9130 N.2          1 3PZ429   0.0000
    10 O3          45.6770   -51.5490     4.6630 O.3          1 3PZ429   0.0000
    11 C4          50.4790   -53.6520     6.2950 C.ar         1 3PZ429   0.0000
    12 N4          50.0400   -47.0670     6.4660 N.pl3        1 3PZ429   0.0000
    13 C5          49.8760   -52.4970     6.8140 C.ar         1 3PZ429   0.0000
    14 N5          50.2220   -56.0290     7.2730 N.1          1 3PZ429   0.0000
    15 C6          50.0910   -51.2620     6.2380 C.ar         1 3PZ429   0.0000
    16 C7          52.4260   -52.4760     3.4400 C.3          1 3PZ429   0.0000
    17 C8          52.4770   -50.2250     2.4970 C.3          1 3PZ429   0.0000
    18 C9          52.4920   -49.7650     3.9600 C.3          1 3PZ429   0.0000
    19 C10         50.3190   -48.8340     4.7020 C.3          1 3PZ429   0.0000
    20 C11         50.6540   -48.1530     6.0180 C.2          1 3PZ429   0.0000
    21 C12         51.5570   -48.5120     6.9160 C.2          1 3PZ429   0.0000
    22 C13         50.5390   -46.7430     7.6390 C.2          1 3PZ429   0.0000
    23 C14         48.9190   -46.3650     5.7270 C.3          1 3PZ429   0.0000
    24 C15         53.8100   -49.9640     1.7690 C.3          1 3PZ429   0.0000
    25 C16         57.4560   -51.8270     3.1850 C.ar         1 3PZ429   0.0000
    26 C17         56.6160   -52.4980     2.2950 C.ar         1 3PZ429   0.0000
    27 C18         55.4410   -51.9050     1.8340 C.ar         1 3PZ429   0.0000
    28 C19         55.0750   -50.6440     2.2810 C.ar         1 3PZ429   0.0000
    29 C20         55.9150   -49.9620     3.1510 C.ar         1 3PZ429   0.0000
    30 C21         57.1090   -50.5440     3.6100 C.ar         1 3PZ429   0.0000
    31 C22         46.7760   -51.6000     3.8610 C.ar         1 3PZ429   0.0000
    32 C23         47.3970   -52.8140     3.6150 C.ar         1 3PZ429   0.0000
    33 C24         48.5140   -52.8770     2.8050 C.ar         1 3PZ429   0.0000
    34 C25         49.0200   -51.6850     2.2890 C.ar         1 3PZ429   0.0000
    35 C26         48.4020   -50.4620     2.5180 C.ar         1 3PZ429   0.0000
    36 C27         47.2780   -50.4160     3.3250 C.ar         1 3PZ429   0.0000
    37 C28         46.0560   -50.9100     5.9570 C.3          1 3PZ429   0.0000
    38 C29         50.2930   -54.9620     6.8600 C.1          1 3PZ429   0.0000
    39 H1          51.7624   -54.3756     4.8419 H            1 3PZ429   0.0000
    40 H2          49.2808   -52.5698     7.6143 H            1 3PZ429   0.0000
    41 H3          49.6741   -50.4381     6.6218 H            1 3PZ429   0.0000
    42 H4          53.3487   -52.2191     3.7273 H            1 3PZ429   0.0000
    43 H5          52.4202   -53.4347     3.1556 H            1 3PZ429   0.0000
    44 H6          51.7947   -49.6576     2.0360 H            1 3PZ429   0.0000
    45 H7          53.1865   -50.2842     4.4581 H            1 3PZ429   0.0000
    46 H8          52.7163   -48.7910     3.9934 H            1 3PZ429   0.0000
    47 H9          49.3612   -49.1213     4.6965 H            1 3PZ429   0.0000
    48 H10         50.4841   -48.2094     3.9387 H            1 3PZ429   0.0000
    49 H11         52.1793   -49.2921     6.8517 H            1 3PZ429   0.0000
    50 H12         50.2656   -45.9711     8.2130 H            1 3PZ429   0.0000
    51 H13         48.6147   -45.5735     6.2570 H            1 3PZ429   0.0000
    52 H14         49.2482   -46.0610     4.8330 H            1 3PZ429   0.0000
    53 H15         48.1542   -46.9972     5.6032 H            1 3PZ429   0.0000
    54 H16         53.9735   -48.9780     1.8008 H            1 3PZ429   0.0000
    55 H17         53.6866   -50.2510     0.8190 H            1 3PZ429   0.0000
    56 H18         58.2954   -52.2599     3.5137 H            1 3PZ429   0.0000
    57 H19         56.8600   -53.4164     1.9837 H            1 3PZ429   0.0000
    58 H20         54.8609   -52.3901     1.1796 H            1 3PZ429   0.0000
    59 H21         55.6666   -49.0425     3.4557 H            1 3PZ429   0.0000
    60 H22         57.7055   -50.0424     4.2365 H            1 3PZ429   0.0000
    61 H23         47.0341   -53.6500     4.0266 H            1 3PZ429   0.0000
    62 H24         48.9476   -53.7532     2.5946 H            1 3PZ429   0.0000
    63 H25         48.7642   -49.6261     2.1055 H            1 3PZ429   0.0000
    64 H26         46.8315   -49.5429     3.5210 H            1 3PZ429   0.0000
    65 H27         45.2554   -50.8672     6.5547 H            1 3PZ429   0.0000
    66 H28         46.7728   -51.4500     6.3981 H            1 3PZ429   0.0000
    67 H29         46.3937   -49.9845     5.7854 H            1 3PZ429   0.0000
@<TRIPOS>BOND
     1    1    5      ar
     2    1    6       1
     3    1   15      ar
     4    2    4       1
     5    2   16       1
     6    2   17       1
     7    3    4       2
     8    4    7       2
     9    4   34       1
    10    5    8      ar
    11    5   16       1
    12    6   18       1
    13    6   19       1
    14    8   11      ar
    15    9   21       1
    16    9   22       2
    17   10   31       1
    18   10   37       1
    19   11   13      ar
    20   11   38       1
    21   12   20       1
    22   12   22       1
    23   12   23       1
    24   13   15      ar
    25   14   38       3
    26   17   18       1
    27   17   24       1
    28   19   20       1
    29   20   21       2
    30   24   28       1
    31   25   26      ar
    32   25   30      ar
    33   26   27      ar
    34   27   28      ar
    35   28   29      ar
    36   29   30      ar
    37   31   32      ar
    38   31   36      ar
    39   32   33      ar
    40   33   34      ar
    41   34   35      ar
    42   35   36      ar
    43    8   39       1
    44   13   40       1
    45   15   41       1
    46   16   42       1
    47   16   43       1
    48   17   44       1
    49   18   45       1
    50   18   46       1
    51   19   47       1
    52   19   48       1
    53   21   49       1
    54   22   50       1
    55   23   51       1
    56   23   52       1
    57   23   53       1
    58   24   54       1
    59   24   55       1
    60   25   56       1
    61   26   57       1
    62   27   58       1
    63   29   59       1
    64   30   60       1
    65   32   61       1
    66   33   62       1
    67   35   63       1
    68   36   64       1
    69   37   65       1
    70   37   66       1
    71   37   67       1
@<TRIPOS>SUBSTRUCTURE
     1 3PZ429      1 GROUP             4 B     3PZ     0 **** 3PZ B 429
