@<TRIPOS>MOLECULE
./coach420/2ihz/ligand.pdb
 64 65 0 0 0
SMALL
GASTEIGER

@<TRIPOS>ATOM
      1  C1         4.4260    5.2320    3.8280 C.3   3824  LBT3824     0.2695
      2  C2         5.6330    6.1000    4.1530 C.3   3824  LBT3824     0.2406
      3  C3         6.8910    5.2410    4.1010 C.3   3824  LBT3824     0.2198
      4  C4         6.7830    4.0010    4.9910 C.3   3824  LBT3824     0.2144
      5  C5         5.4480    3.2720    4.7940 C.3   3824  LBT3824     0.1835
      6  C6         5.1660    2.2330    5.8770 C.3   3824  LBT3824     0.2142
      7  O1         3.2400    6.0180    3.9480 O.3   3824  LBT3824    -0.3257
      8  O2         5.7180    7.1880    3.2260 O.3   3824  LBT3824    -0.2149
      9  O3         8.0070    6.0020    4.5610 O.3   3824  LBT3824    -0.2174
     10  O4         6.9980    4.3970    6.3510 O.3   3824  LBT3824    -0.2176
     11  O5         4.3580    4.1940    4.8080 O.3   3824  LBT3824    -0.3256
     12  O6         4.0900    1.3780    5.4490 O.3   3824  LBT3824    -0.2176
     13  C1'       -0.7380    5.8190    2.7630 C.3   3824  LBT3824     0.3023
     14  C2'       -0.0420    4.4690    2.9430 C.3   3824  LBT3824     0.2433
     15  C3'        1.2310    4.6570    3.7650 C.3   3824  LBT3824     0.2168
     16  C4'        2.1600    5.6610    3.0800 C.3   3824  LBT3824     0.1804
     17  C5'        1.4140    6.9590    2.7370 C.3   3824  LBT3824     0.1804
     18  C6'        2.2600    7.8510    1.8320 C.3   3824  LBT3824     0.2141
     19  O1'       -1.1240    6.3540    4.0380 O.3   3824  LBT3824    -0.1869
     20  O2'       -0.9280    3.5490    3.5900 O.3   3824  LBT3824    -0.2148
     21  O3'        1.8850    3.3950    3.9420 O.3   3824  LBT3824    -0.2175
     22  O5'        0.1480    6.7290    2.0960 O.3   3824  LBT3824    -0.3237
     23  O6'        1.7290    9.1810    1.8590 O.3   3824  LBT3824    -0.2176
     24  C4A       11.2390    3.4590    2.3530 C.3   1741  CSF1741     0.2229
     25  C2A        9.8290    1.5260    2.2640 C.3   1741  CSF1741     0.3217
     26  O6A        9.1370    2.1560    1.1660 O.3   1741  CSF1741    -0.3210
     27  C6A        9.8600    3.1250    0.3880 C.3   1741  CSF1741     0.1807
     28  C3A       10.2820    2.6160    3.2090 C.3   1741  CSF1741     0.2560
     29  O4A       12.1600    4.2090    3.1540 O.3   1741  CSF1741    -0.2172
     30  N5A       11.3780    5.0080    0.5270 N.am  1741  CSF1741    -0.0878
     31  C7A        8.9290    3.5930   -0.7330 C.3   1741  CSF1741     0.2142
     32  C8A        8.3620    2.4100   -1.5290 C.3   1741  CSF1741     0.2174
     33  C9A        7.4480    2.8870   -2.6550 C.3   1741  CSF1741     0.2175
     34  O9A        8.2320    3.0590   -3.8480 O.3   1741  CSF1741    -0.2175
     35  O8A        9.4240    1.6150   -2.0840 O.3   1741  CSF1741    -0.2175
     36  O7A        7.8540    4.3500   -0.1600 O.3   1741  CSF1741    -0.2176
     37  C1A        8.8810    0.6290    3.0060 C.2   1741  CSF1741     0.4183
     38  OBA        9.2520    0.1500    4.0810 O.co2 1741  CSF1741    -0.2401
     39  OAA        7.7480    0.4170    2.5360 O.co2 1741  CSF1741    -0.2401
     40  O1A       11.0560    0.8380    1.9370 O.3   1741  CSF1741    -0.2813
     41  O2A       12.5060    0.5050   -0.0820 O.2   1741  CSF1741    -0.5171
     42  N1        11.3350   -5.3550    1.3790 N.ar  1741  CSF1741    -0.2535
     43  C2        11.3750   -6.7130    0.9990 C.ar  1741  CSF1741     0.3532
     44  N3        11.2000   -7.0730   -0.2960 N.ar  1741  CSF1741    -0.1739
     45  C4        10.9740   -6.1290   -1.2470 C.ar  1741  CSF1741     0.1759
     46  C5        10.9360   -4.7820   -0.8920 C.ar  1741  CSF1741     0.0566
     47  C6        11.1180   -4.4140    0.4400 C.ar  1741  CSF1741     0.0850
     48  C3'       13.3650   -3.4920    2.9250 C.3   1741  CSF1741     0.2161
     49  C2'       13.0010   -4.9490    3.1480 C.3   1741  CSF1741     0.2338
     50  C1'       11.5240   -4.9930    2.7980 C.3   1741  CSF1741     0.2421
     51  O4'       11.0440   -3.6630    3.0580 O.3   1741  CSF1741    -0.3306
     52  C4'       12.1280   -2.8090    3.4530 C.3   1741  CSF1741     0.1801
     53  PA        11.3660   -0.1320    0.6860 P.3   1741  CSF1741     0.2163
     54  O5'       11.9790   -1.4080    1.4650 O.3   1741  CSF1741    -0.3113
     55  C5'       11.9210   -1.4070    2.8940 C.3   1741  CSF1741     0.1813
     56  O3'       14.5570   -3.0900    3.6070 O.3   1741  CSF1741    -0.2175
     57  O2'       13.1350   -5.2920    4.5270 O.3   1741  CSF1741    -0.2155
     58  N4        10.8030   -6.4800   -2.5520 N.pl3 1741  CSF1741    -0.1070
     59  O2        11.5770   -7.5740    1.8750 O.2   1741  CSF1741    -0.2443
     60  O3A       10.0240   -0.4300    0.1390 O.3   1741  CSF1741    -0.4372
     61  C10       11.1350    6.1750   -0.0840 C.2   1741  CSF1741     0.2612
     62  O10       10.0520    6.7540   -0.0700 O.2   1741  CSF1741    -0.2716
     63  C11       12.3150    6.7400   -0.8190 C.3   1741  CSF1741     0.0982
     64  F3A        9.1680    3.2860    3.6870 F     1741  CSF1741    -0.2285
@<TRIPOS>BOND
     1     1     7    1
     2     1     2    1
     3     1    11    1
     4     2     8    1
     5     2     3    1
     6     3     9    1
     7     3     4    1
     8     4     5    1
     9     4    10    1
    10     5    11    1
    11     5     6    1
    12     6    12    1
    13     7    16    1
    14    13    22    1
    15    13    14    1
    16    13    19    1
    17    14    20    1
    18    14    15    1
    19    15    16    1
    20    15    21    1
    21    16    17    1
    22    17    18    1
    23    17    22    1
    24    18    23    1
    25    24    29    1
    26    24    28    1
    27    25    26    1
    28    25    40    1
    29    25    37    1
    30    25    28    1
    31    26    27    1
    32    27    31    1
    33    28    64    1
    34    30    61   am
    35    31    32    1
    36    31    36    1
    37    32    33    1
    38    32    35    1
    39    33    34    1
    40    37    39   ar
    41    37    38   ar
    42    40    53    1
    43    41    53    2
    44    42    47   ar
    45    42    43   ar
    46    42    50    1
    47    43    44   ar
    48    43    59    2
    49    44    45   ar
    50    45    58    1
    51    45    46   ar
    52    46    47   ar
    53    48    49    1
    54    48    52    1
    55    48    56    1
    56    49    50    1
    57    49    57    1
    58    50    51    1
    59    51    52    1
    60    52    55    1
    61    53    60    1
    62    53    54    1
    63    54    55    1
    64    61    63    1
    65    61    62    2
