@<TRIPOS>MOLECULE
3tr0_5GP_1_ligand
   36    38     1     0     0
SMALL
NO_CHARGES


@<TRIPOS>ATOM
     1 P          -16.0320    19.1960   -11.9820 P.3          1 5GP205   0.0000
     2 O1P        -14.9870    18.1560   -11.6610 O.co2        1 5GP205   0.0000
     3 O2P        -16.6990    19.9110   -10.8370 O.co2        1 5GP205  -1.0000
     4 O3P        -17.0720    18.5670   -12.8800 O.co2        1 5GP205  -1.0000
     5 O5'        -15.4190    20.2620   -12.9910 O.3          1 5GP205   0.0000
     6 C5'        -16.0920    21.4790   -13.2650 C.3          1 5GP205   0.0000
     7 C4'        -15.3840    22.2630   -14.3370 C.3          1 5GP205   0.0000
     8 O4'        -14.4810    23.2070   -13.7270 O.3          1 5GP205   0.0000
     9 C3'        -14.4870    21.4540   -15.2590 C.3          1 5GP205   0.0000
    10 O3'        -15.2030    20.8000   -16.2920 O.3          1 5GP205   0.0000
    11 C2'        -13.4920    22.4890   -15.7720 C.3          1 5GP205   0.0000
    12 O2'        -14.0280    23.1790   -16.8910 O.3          1 5GP205   0.0000
    13 C1'        -13.4110    23.4730   -14.5990 C.3          1 5GP205   0.0000
    14 N9         -12.1490    23.3550   -13.8480 N.pl3        1 5GP205   0.0000
    15 C8         -11.6460    22.3060   -13.1840 C.2          1 5GP205   0.0000
    16 N7         -10.4650    22.6760   -12.6270 N.2          1 5GP205   0.0000
    17 C5         -10.2440    23.9710   -12.9560 C.2          1 5GP205   0.0000
    18 C6          -9.2340    24.8910   -12.6960 C.2          1 5GP205   0.0000
    19 O6          -8.2310    24.5750   -12.0110 O.2          1 5GP205   0.0000
    20 N1          -9.3410    26.1310   -13.1890 N.pl3        1 5GP205   0.0000
    21 C2         -10.3950    26.5040   -13.9290 C.2          1 5GP205   0.0000
    22 N2         -10.4900    27.7610   -14.4230 N.pl3        1 5GP205   0.0000
    23 N3         -11.3850    25.6350   -14.1990 N.2          1 5GP205   0.0000
    24 C4         -11.3200    24.3780   -13.7150 C.2          1 5GP205   0.0000
    25 H5'1       -16.1276    22.0273   -12.4295 H            1 5GP205   0.0000
    26 H5'2       -17.0224    21.2757   -13.5702 H            1 5GP205   0.0000
    27 H4'        -16.0590    22.7581   -14.8841 H            1 5GP205   0.0000
    28 H3'        -13.9965    20.7701   -14.7189 H            1 5GP205   0.0000
    29 H5         -16.1775    21.0070   -16.2048 H            1 5GP205   0.0000
    30 H2'        -12.6026    22.0806   -15.9775 H            1 5GP205   0.0000
    31 H7         -15.0240    23.2199   -16.8116 H            1 5GP205   0.0000
    32 H1'        -13.4978    24.4060   -14.9482 H            1 5GP205   0.0000
    33 H9         -12.0692    21.4029   -13.1110 H            1 5GP205   0.0000
    34 H10         -8.6174    26.7951   -13.0008 H            1 5GP205   0.0000
    35 H11        -11.2827    28.0234   -14.9732 H            1 5GP205   0.0000
    36 H12         -9.7675    28.4270   -14.2376 H            1 5GP205   0.0000
@<TRIPOS>BOND
     1    1    2      ar
     2    1    3      ar
     3    1    4      ar
     4    1    5       1
     5    5    6       1
     6    6    7       1
     7    7    8       1
     8    7    9       1
     9    8   13       1
    10    9   10       1
    11    9   11       1
    12   11   12       1
    13   11   13       1
    14   13   14       1
    15   14   15       1
    16   14   24       1
    17   15   16       2
    18   16   17       1
    19   17   18       1
    20   17   24       2
    21   18   19       2
    22   18   20       1
    23   20   21       1
    24   21   22       1
    25   21   23       2
    26   23   24       1
    27   22   36       1
    28   22   35       1
    29    6   25       1
    30    6   26       1
    31    7   27       1
    32    9   28       1
    33   10   29       1
    34   11   30       1
    35   12   31       1
    36   13   32       1
    37   15   33       1
    38   20   34       1
@<TRIPOS>SUBSTRUCTURE
     1 5GP205      1 GROUP             4 A     5GP     0 **** 5GP A 205
