@<TRIPOS>MOLECULE
2dr3_ADP_4_ligand
   39    41     1     0     0
SMALL
NO_CHARGES


@<TRIPOS>ATOM
     1 PB          44.2550   -39.4340   123.8180 P.3          1 ADP3804   0.0000
     2 O1B         43.1960   -39.9740   124.6980 O.co2        1 ADP3804   0.0000
     3 O2B         43.7930   -38.0690   123.1100 O.co2        1 ADP3804  -1.0000
     4 O3B         44.5960   -40.4620   122.6390 O.co2        1 ADP3804  -1.0000
     5 PA          46.9170   -40.0370   124.6220 P.3          1 ADP3804   0.0000
     6 O1A         46.4830   -41.4380   124.7560 O.co2        1 ADP3804   0.0000
     7 O2A         47.7190   -39.7010   123.4150 O.co2        1 ADP3804  -1.0000
     8 O3A         45.6250   -39.0760   124.5750 O.3          1 ADP3804   0.0000
     9 O5'         47.7280   -39.5250   125.9150 O.3          1 ADP3804   0.0000
    10 C5'         48.4400   -38.2840   125.8190 C.3          1 ADP3804   0.0000
    11 C4'         49.0510   -37.8140   127.1310 C.3          1 ADP3804   0.0000
    12 O4'         50.0550   -38.7200   127.6260 O.3          1 ADP3804   0.0000
    13 C3'         49.7850   -36.4940   126.9490 C.3          1 ADP3804   0.0000
    14 O3'         48.8360   -35.4240   126.9570 O.3          1 ADP3804   0.0000
    15 C2'         50.7380   -36.4750   128.1410 C.3          1 ADP3804   0.0000
    16 O2'         50.2390   -35.6660   129.2170 O.3          1 ADP3804   0.0000
    17 C1'         50.8750   -37.9490   128.5430 C.3          1 ADP3804   0.0000
    18 N9          52.2830   -38.4470   128.4190 N.pl3        1 ADP3804   0.0000
    19 C8          52.9040   -38.7450   127.2620 C.2          1 ADP3804   0.0000
    20 N7          54.1480   -39.1610   127.5050 N.2          1 ADP3804   0.0000
    21 C5          54.3320   -39.1360   128.8270 C.ar         1 ADP3804   0.0000
    22 C6          55.4170   -39.4480   129.6770 C.ar         1 ADP3804   0.0000
    23 N6          56.5670   -39.8930   129.1770 N.pl3        1 ADP3804   0.0000
    24 N1          55.2650   -39.3000   131.0330 N.ar         1 ADP3804   0.0000
    25 C2          54.1140   -38.8540   131.5640 C.ar         1 ADP3804   0.0000
    26 N3          53.0670   -38.5480   130.7830 N.ar         1 ADP3804   0.0000
    27 C4          53.1430   -38.6660   129.4180 C.ar         1 ADP3804   0.0000
    28 H5'1        47.8043   -37.5814   125.4993 H            1 ADP3804   0.0000
    29 H5'2        49.1766   -38.3955   125.1519 H            1 ADP3804   0.0000
    30 H4'         48.3307   -37.7052   127.8161 H            1 ADP3804   0.0000
    31 H3'         50.2996   -36.4969   126.0916 H            1 ADP3804   0.0000
    32 H5          48.3469   -35.4188   127.8292 H            1 ADP3804   0.0000
    33 H2'         51.6285   -36.1263   127.8487 H            1 ADP3804   0.0000
    34 H7          50.5613   -34.7261   129.1045 H            1 ADP3804   0.0000
    35 H1'         50.5501   -38.0775   129.4800 H            1 ADP3804   0.0000
    36 H9          52.4930   -38.6661   126.3538 H            1 ADP3804   0.0000
    37 H10         57.3275   -40.1104   129.7889 H            1 ADP3804   0.0000
    38 H11         56.6708   -40.0101   128.1893 H            1 ADP3804   0.0000
    39 H12         54.0368   -38.7487   132.5554 H            1 ADP3804   0.0000
@<TRIPOS>BOND
     1    1    2      ar
     2    1    3      ar
     3    1    4      ar
     4    1    8       1
     5    5    6      ar
     6    5    7      ar
     7    5    8       1
     8    5    9       1
     9    9   10       1
    10   10   11       1
    11   11   12       1
    12   11   13       1
    13   12   17       1
    14   13   14       1
    15   13   15       1
    16   15   16       1
    17   15   17       1
    18   17   18       1
    19   18   19       1
    20   18   27       1
    21   19   20       2
    22   20   21       1
    23   21   22      ar
    24   21   27      ar
    25   22   23       1
    26   22   24      ar
    27   24   25      ar
    28   25   26      ar
    29   26   27      ar
    30   25   39       1
    31   23   38       1
    32   23   37       1
    33   10   28       1
    34   10   29       1
    35   11   30       1
    36   13   31       1
    37   14   32       1
    38   15   33       1
    39   16   34       1
    40   17   35       1
    41   19   36       1
@<TRIPOS>SUBSTRUCTURE
     1 ADP3804     1 GROUP             4 D     ADP     0 **** ADP D3804
