@<TRIPOS>MOLECULE
5dwq_SFG_1_ligand
   51    53     1     0     0
SMALL
NO_CHARGES


@<TRIPOS>ATOM
     1 N           16.8890    15.7430    91.5750 N.4          1 SFG501   1.0000
     2 CA          15.5870    15.2460    91.1620 C.3          1 SFG501   0.0000
     3 C           15.7610    14.0570    90.2700 C.2          1 SFG501   0.0000
     4 O           14.7570    13.3540    90.0340 O.co2        1 SFG501   0.0000
     5 OXT         16.8960    13.8140    89.7930 O.co2        1 SFG501  -1.0000
     6 CB          14.7800    16.3250    90.4420 C.3          1 SFG501   0.0000
     7 CG          15.6070    17.1230    89.4350 C.3          1 SFG501   0.0000
     8 CD          14.7600    18.1570    88.6910 C.3          1 SFG501   0.0000
     9 NE          14.9730    18.0100    87.2650 N.4          1 SFG501   1.0000
    10 C5'         15.1420    19.5810    89.0820 C.3          1 SFG501   0.0000
    11 C4'         14.7690    19.9230    90.5220 C.3          1 SFG501   0.0000
    12 O4'         15.5850    21.0080    90.9560 O.3          1 SFG501   0.0000
    13 C3'         13.3260    20.3740    90.7030 C.3          1 SFG501   0.0000
    14 O3'         12.7310    19.6670    91.7940 O.3          1 SFG501   0.0000
    15 C2'         13.4000    21.8570    91.0110 C.3          1 SFG501   0.0000
    16 O2'         12.3920    22.2870    91.9280 O.3          1 SFG501   0.0000
    17 C1'         14.7910    21.9960    91.6080 C.3          1 SFG501   0.0000
    18 N9          15.4100    23.3280    91.4250 N.pl3        1 SFG501   0.0000
    19 C8          15.4560    24.0410    90.2900 C.2          1 SFG501   0.0000
    20 N7          16.1100    25.2100    90.4860 N.2          1 SFG501   0.0000
    21 C5          16.5010    25.2470    91.7710 C.ar         1 SFG501   0.0000
    22 C6          17.2370    26.1950    92.6380 C.ar         1 SFG501   0.0000
    23 N6          17.6940    27.3680    92.1480 N.pl3        1 SFG501   0.0000
    24 N1          17.4310    25.8500    93.9280 N.ar         1 SFG501   0.0000
    25 C2          16.9750    24.6820    94.4350 C.ar         1 SFG501   0.0000
    26 N3          16.2980    23.7750    93.6980 N.ar         1 SFG501   0.0000
    27 C4          16.0390    23.9990    92.3870 C.ar         1 SFG501   0.0000
    28 H1          16.8361    16.7299    91.7274 H            1 SFG501   0.0000
    29 H2          17.1656    15.2893    92.4221 H            1 SFG501   0.0000
    30 HA          15.0819    14.9614    91.9768 H            1 SFG501   0.0000
    31 HB1         14.4141    16.9572    91.1250 H            1 SFG501   0.0000
    32 HB2         14.0245    15.8857    89.9559 H            1 SFG501   0.0000
    33 HG1         16.0033    16.4907    88.7693 H            1 SFG501   0.0000
    34 HG2         16.3404    17.5967    89.9225 H            1 SFG501   0.0000
    35 HD          13.7938    18.0046    88.8988 H            1 SFG501   0.0000
    36 HE1         14.4211    18.6842    86.7743 H            1 SFG501   0.0000
    37 HE2         15.9401    18.1549    87.0557 H            1 SFG501   0.0000
    38 H5'1        14.6706    20.2168    88.4709 H            1 SFG501   0.0000
    39 H5'2        16.1306    19.6868    88.9749 H            1 SFG501   0.0000
    40 H4'         14.9410    19.1284    91.1042 H            1 SFG501   0.0000
    41 H3'         12.8055    20.2190    89.8633 H            1 SFG501   0.0000
    42 H15         13.2436    19.8545    92.6319 H            1 SFG501   0.0000
    43 H2'         13.3381    22.3848    90.1639 H            1 SFG501   0.0000
    44 H17         12.4933    21.7919    92.7909 H            1 SFG501   0.0000
    45 H1'         14.7487    21.7876    92.5851 H            1 SFG501   0.0000
    46 H19         15.0614    23.7492    89.4187 H            1 SFG501   0.0000
    47 H20         18.1897    27.9997    92.7440 H            1 SFG501   0.0000
    48 H21         17.5366    27.6047    91.1892 H            1 SFG501   0.0000
    49 H22         17.1469    24.4808    95.3994 H            1 SFG501   0.0000
    50 H23         17.5611    15.5517    90.8596 H            1 SFG501   0.0000
    51 HE3         14.7049    17.0894    86.9811 H            1 SFG501   0.0000
@<TRIPOS>BOND
     1    1    2       1
     2    2    3       1
     3    2    6       1
     4    3    4      ar
     5    3    5      ar
     6    6    7       1
     7    7    8       1
     8    8    9       1
     9    8   10       1
    10   10   11       1
    11   11   12       1
    12   11   13       1
    13   12   17       1
    14   13   14       1
    15   13   15       1
    16   15   16       1
    17   15   17       1
    18   17   18       1
    19   18   19       1
    20   18   27       1
    21   19   20       2
    22   20   21       1
    23   21   22      ar
    24   21   27      ar
    25   22   23       1
    26   22   24      ar
    27   24   25      ar
    28   25   26      ar
    29   26   27      ar
    30    1   28       1
    31    1   29       1
    32    2   30       1
    33    1   50       1
    34    6   31       1
    35    6   32       1
    36    7   33       1
    37    7   34       1
    38    8   35       1
    39    9   36       1
    40    9   37       1
    41   10   38       1
    42   10   39       1
    43   11   40       1
    44   13   41       1
    45   14   42       1
    46   15   43       1
    47   16   44       1
    48   17   45       1
    49   19   46       1
    50   23   47       1
    51   23   48       1
    52   25   49       1
    53    9   51       1
@<TRIPOS>SUBSTRUCTURE
     1 SFG501      1 GROUP             4 A     SFG     0 **** SFG A 501
