@<TRIPOS>MOLECULE
4i8v_BHF_3_ligand
   33    36     1     0     0
SMALL
NO_CHARGES


@<TRIPOS>ATOM
     1 C8         -50.8820   125.2850    10.6920 C.2          1 BHF601   0.0000
     2 C9         -50.1980   124.0640    10.8570 C.2          1 BHF601   0.0000
     3 O2         -50.6440   122.9650    10.4320 O.2          1 BHF601   0.0000
     4 C10        -48.9000   124.1060    11.5640 C.ar         1 BHF601   0.0000
     5 C11        -48.1390   122.9610    11.7850 C.ar         1 BHF601   0.0000
     6 C12        -46.9160   123.0530    12.4680 C.ar         1 BHF601   0.0000
     7 C13        -46.4110   124.2740    12.9480 C.ar         1 BHF601   0.0000
     8 C14        -45.2000   124.3500    13.6190 C.ar         1 BHF601   0.0000
     9 C15        -44.7360   125.5860    14.0800 C.ar         1 BHF601   0.0000
    10 C16        -45.4580   126.7710    13.8850 C.ar         1 BHF601   0.0000
    11 C17        -46.6790   126.7540    13.2220 C.ar         1 BHF601   0.0000
    12 C18        -47.1580   125.5370    12.7500 C.ar         1 BHF601   0.0000
    13 C19        -48.4330   125.4380    12.0400 C.ar         1 BHF601   0.0000
    14 O1         -49.1490   126.5670    11.8360 O.2          1 BHF601   0.0000
    15 C7         -50.3480   126.5070    11.1830 C.2          1 BHF601   0.0000
    16 C1         -51.0160   127.8300    11.0590 C.ar         1 BHF601   0.0000
    17 C2         -50.2980   128.9600    11.4880 C.ar         1 BHF601   0.0000
    18 C3         -50.8780   130.2220    11.3980 C.ar         1 BHF601   0.0000
    19 C4         -52.1760   130.3550    10.8870 C.ar         1 BHF601   0.0000
    20 C5         -52.9030   129.2310    10.4720 C.ar         1 BHF601   0.0000
    21 C6         -52.3230   127.9650    10.5630 C.ar         1 BHF601   0.0000
    22 H1         -51.7629   125.2917    10.2188 H            1 BHF601   0.0000
    23 H2         -48.4635   122.0737    11.4574 H            1 BHF601   0.0000
    24 H3         -46.3845   122.2194    12.6186 H            1 BHF601   0.0000
    25 H4         -44.6596   123.5228    13.7729 H            1 BHF601   0.0000
    26 H5         -43.8618   125.6254    14.5639 H            1 BHF601   0.0000
    27 H6         -45.0913   127.6366    14.2260 H            1 BHF601   0.0000
    28 H7         -47.2006   127.5966    13.0876 H            1 BHF601   0.0000
    29 H8         -49.3740   128.8574    11.8564 H            1 BHF601   0.0000
    30 H9         -50.3706   131.0303    11.6967 H            1 BHF601   0.0000
    31 H10        -52.5887   131.2632    10.8176 H            1 BHF601   0.0000
    32 H11        -53.8306   129.3354    10.1133 H            1 BHF601   0.0000
    33 H12        -52.8365   127.1563    10.2759 H            1 BHF601   0.0000
@<TRIPOS>BOND
     1    1    2       1
     2    1   15       2
     3    2    3       2
     4    2    4       1
     5    4    5      ar
     6    4   13      ar
     7    5    6      ar
     8    6    7      ar
     9    7    8      ar
    10    7   12      ar
    11    8    9      ar
    12    9   10      ar
    13   10   11      ar
    14   11   12      ar
    15   12   13      ar
    16   13   14       1
    17   14   15       1
    18   15   16       1
    19   16   17      ar
    20   16   21      ar
    21   17   18      ar
    22   18   19      ar
    23   19   20      ar
    24   20   21      ar
    25    1   22       1
    26    5   23       1
    27    6   24       1
    28    8   25       1
    29    9   26       1
    30   10   27       1
    31   11   28       1
    32   17   29       1
    33   18   30       1
    34   19   31       1
    35   20   32       1
    36   21   33       1
@<TRIPOS>SUBSTRUCTURE
     1 BHF601      1 GROUP             4 C     BHF     0 **** BHF C 601
