@<TRIPOS>MOLECULE
3umv_FAD_1_ligand
   84    89     1     0     0
SMALL
NO_CHARGES


@<TRIPOS>ATOM
     1 PA          17.4410    -3.6180    20.5320 P.3          1 FAD801   0.0000
     2 O1A         18.6940    -4.4370    20.6000 O.co2        1 FAD801   0.0000
     3 O2A         16.7000    -3.5000    21.8350 O.co2        1 FAD801  -1.0000
     4 O5B         17.8200    -2.1770    19.9490 O.3          1 FAD801   0.0000
     5 C5B         17.1340    -1.0070    20.3390 C.3          1 FAD801   0.0000
     6 C4B         16.9900    -0.0640    19.1400 C.3          1 FAD801   0.0000
     7 O4B         18.2490     0.2890    18.5870 O.3          1 FAD801   0.0000
     8 C3B         16.2400    -0.7160    17.9950 C.3          1 FAD801   0.0000
     9 O3B         14.8460    -0.6280    18.1720 O.3          1 FAD801   0.0000
    10 C2B         16.7010     0.1150    16.8340 C.3          1 FAD801   0.0000
    11 O2B         16.0420     1.3670    16.8570 O.3          1 FAD801   0.0000
    12 C1B         18.1460     0.3650    17.1820 C.3          1 FAD801   0.0000
    13 N9A         19.0220    -0.6330    16.5460 N.pl3        1 FAD801   0.0000
    14 C8A         19.4780    -1.8100    17.0770 C.2          1 FAD801   0.0000
    15 N7A         20.2620    -2.4040    16.1470 N.2          1 FAD801   0.0000
    16 C5A         20.2950    -1.6260    15.0290 C.ar         1 FAD801   0.0000
    17 C6A         20.9260    -1.7260    13.7830 C.ar         1 FAD801   0.0000
    18 N6A         21.7810    -2.7080    13.5000 N.pl3        1 FAD801   0.0000
    19 N1A         20.7540    -0.7310    12.8460 N.ar         1 FAD801   0.0000
    20 C2A         19.9720     0.3620    13.1400 C.ar         1 FAD801   0.0000
    21 N3A         19.3480     0.4580    14.3640 N.ar         1 FAD801   0.0000
    22 C4A         19.5210    -0.5120    15.2890 C.ar         1 FAD801   0.0000
    23 N1          15.9220    -2.6650    12.1090 N.2          1 FAD801   0.0000
    24 C2          14.6970    -2.0940    11.9230 C.2          1 FAD801   0.0000
    25 O2          14.3410    -1.2320    12.7270 O.2          1 FAD801   0.0000
    26 N3          13.9050    -2.4620    10.8490 N.pl3        1 FAD801   0.0000
    27 C4          14.3350    -3.4280     9.9570 C.2          1 FAD801   0.0000
    28 O4          13.6230    -3.7580     9.0030 O.2          1 FAD801   0.0000
    29 C4X         15.5890    -3.9950    10.1490 C.2          1 FAD801   0.0000
    30 N5          16.0690    -4.9700     9.3060 N.2          1 FAD801   0.0000
    31 C5X         17.3260    -5.5080     9.5010 C.ar         1 FAD801   0.0000
    32 C6          17.8190    -6.4770     8.6170 C.ar         1 FAD801   0.0000
    33 C7          19.0890    -7.0270     8.8150 C.ar         1 FAD801   0.0000
    34 C7M         19.6010    -8.0570     7.8420 C.3          1 FAD801   0.0000
    35 C8          19.8540    -6.6070     9.9070 C.ar         1 FAD801   0.0000
    36 C8M         21.2210    -7.1630    10.1740 C.3          1 FAD801   0.0000
    37 C9          19.3500    -5.6580    10.7800 C.ar         1 FAD801   0.0000
    38 C9A         18.0970    -5.1090    10.5780 C.ar         1 FAD801   0.0000
    39 N10         17.6030    -4.1660    11.4560 N.pl3        1 FAD801   0.0000
    40 C10         16.3650    -3.6170    11.2250 C.2          1 FAD801   0.0000
    41 C1'         18.4030    -3.6910    12.6610 C.3          1 FAD801   0.0000
    42 C2'         18.1470    -4.5140    13.9630 C.3          1 FAD801   0.0000
    43 O2'         18.2130    -5.9340    13.7860 O.3          1 FAD801   0.0000
    44 C3'         16.8090    -4.1920    14.6540 C.3          1 FAD801   0.0000
    45 O3'         16.6890    -2.8020    14.8020 O.3          1 FAD801   0.0000
    46 C4'         16.6690    -4.8370    16.0350 C.3          1 FAD801   0.0000
    47 O4'         16.7800    -6.2430    15.9190 O.3          1 FAD801   0.0000
    48 C5'         15.3170    -4.4270    16.6160 C.3          1 FAD801   0.0000
    49 O5'         14.9240    -5.1420    17.7630 O.3          1 FAD801   0.0000
    50 P           14.9050    -4.3940    19.1830 P.3          1 FAD801   0.0000
    51 O1P         14.1330    -3.0920    19.0950 O.co2        1 FAD801   0.0000
    52 O2P         14.3540    -5.3290    20.2280 O.co2        1 FAD801  -1.0000
    53 O3P         16.5000    -4.2160    19.3450 O.3          1 FAD801   0.0000
    54 H5B1        17.6479    -0.5469    21.0631 H            1 FAD801   0.0000
    55 H5B2        16.2261    -1.2525    20.6789 H            1 FAD801   0.0000
    56 H4B         16.5077     0.7645    19.4245 H            1 FAD801   0.0000
    57 H3B         16.5232    -1.6685    17.8831 H            1 FAD801   0.0000
    58 H5          14.5229    -1.4284    18.6770 H            1 FAD801   0.0000
    59 H2B         16.5944    -0.3574    15.9591 H            1 FAD801   0.0000
    60 H7          15.4236     1.4038    17.6420 H            1 FAD801   0.0000
    61 H1B         18.4084     1.2807    16.8777 H            1 FAD801   0.0000
    62 H8A         19.2694    -2.1665    17.9877 H            1 FAD801   0.0000
    63 H6A1        22.2143    -2.7497    12.5997 H            1 FAD801   0.0000
    64 H6A2        21.9894    -3.4032    14.1879 H            1 FAD801   0.0000
    65 H2A         19.8563     1.0889    12.4630 H            1 FAD801   0.0000
    66 H13         13.0148    -2.0260    10.7169 H            1 FAD801   0.0000
    67 H14         17.2612    -6.7758     7.8427 H            1 FAD801   0.0000
    68 H7M1        20.5161    -8.3507     8.1183 H            1 FAD801   0.0000
    69 H7M2        18.9855    -8.8451     7.8363 H            1 FAD801   0.0000
    70 H7M3        19.6412    -7.6588     6.9256 H            1 FAD801   0.0000
    71 H8M1        21.5995    -6.7369    10.9957 H            1 FAD801   0.0000
    72 H8M2        21.1580    -8.1517    10.3100 H            1 FAD801   0.0000
    73 H8M3        21.8170    -6.9711     9.3943 H            1 FAD801   0.0000
    74 H21         19.8975    -5.3667    11.5644 H            1 FAD801   0.0000
    75 H1'1        18.1631    -2.7370    12.8406 H            1 FAD801   0.0000
    76 H1'2        19.3754    -3.7535    12.4364 H            1 FAD801   0.0000
    77 H2'         18.8715    -4.2689    14.6072 H            1 FAD801   0.0000
    78 H25         19.1510    -6.2456    13.9381 H            1 FAD801   0.0000
    79 H3'         16.0630    -4.5169    14.0727 H            1 FAD801   0.0000
    80 H27         16.2387    -2.4186    13.9956 H            1 FAD801   0.0000
    81 H4'         17.3978    -4.4986    16.6303 H            1 FAD801   0.0000
    82 H29         17.3747    -6.4679    15.1471 H            1 FAD801   0.0000
    83 H5'1        14.6213    -4.5641    15.9109 H            1 FAD801   0.0000
    84 H5'2        15.3628    -3.4571    16.8550 H            1 FAD801   0.0000
@<TRIPOS>BOND
     1    1    2      ar
     2    1    3      ar
     3    1    4       1
     4    1   53       1
     5    4    5       1
     6    5    6       1
     7    6    7       1
     8    6    8       1
     9    7   12       1
    10    8    9       1
    11    8   10       1
    12   10   11       1
    13   10   12       1
    14   12   13       1
    15   13   14       1
    16   13   22       1
    17   14   15       2
    18   15   16       1
    19   16   17      ar
    20   16   22      ar
    21   17   18       1
    22   17   19      ar
    23   19   20      ar
    24   20   21      ar
    25   21   22      ar
    26   23   24       1
    27   23   40       2
    28   24   25       2
    29   24   26       1
    30   26   27       1
    31   27   28       2
    32   27   29       1
    33   29   30       2
    34   29   40       1
    35   30   31       1
    36   31   32      ar
    37   31   38      ar
    38   32   33      ar
    39   33   34       1
    40   33   35      ar
    41   35   36       1
    42   35   37      ar
    43   37   38      ar
    44   38   39       1
    45   39   40       1
    46   39   41       1
    47   41   42       1
    48   42   43       1
    49   42   44       1
    50   44   45       1
    51   44   46       1
    52   46   47       1
    53   46   48       1
    54   48   49       1
    55   49   50       1
    56   50   51      ar
    57   50   52      ar
    58   50   53       1
    59   48   84       1
    60    5   54       1
    61    5   55       1
    62    6   56       1
    63    8   57       1
    64    9   58       1
    65   10   59       1
    66   11   60       1
    67   12   61       1
    68   14   62       1
    69   18   63       1
    70   18   64       1
    71   20   65       1
    72   26   66       1
    73   32   67       1
    74   34   68       1
    75   34   69       1
    76   34   70       1
    77   36   71       1
    78   36   72       1
    79   36   73       1
    80   37   74       1
    81   41   75       1
    82   41   76       1
    83   42   77       1
    84   43   78       1
    85   44   79       1
    86   45   80       1
    87   46   81       1
    88   47   82       1
    89   48   83       1
@<TRIPOS>SUBSTRUCTURE
     1 FAD801      1 GROUP             4 A     FAD     0 **** FAD A 801
