@<TRIPOS>MOLECULE
3gyq_SAM_1_ligand
   50    52     1     0     0
SMALL
NO_CHARGES


@<TRIPOS>ATOM
     1 N           18.7290    31.5750    82.3620 N.4          1 SAM270   1.0000
     2 CA          18.2900    30.1970    82.1780 C.3          1 SAM270   0.0000
     3 C           19.3560    29.3590    81.4790 C.2          1 SAM270   0.0000
     4 O           19.3250    29.1670    80.2640 O.co2        1 SAM270   0.0000
     5 OXT         20.2720    28.8440    82.1180 O.co2        1 SAM270  -1.0000
     6 CB          16.9990    30.1740    81.3730 C.3          1 SAM270   0.0000
     7 CG          17.0330    31.0640    80.1380 C.3          1 SAM270   0.0000
     8 SD          15.3790    31.3220    79.4560 S.3          1 SAM270   1.0000
     9 CE          14.5950    32.1900    80.8370 C.3          1 SAM270   0.0000
    10 C5'         14.6360    29.6880    79.6660 C.3          1 SAM270   0.0000
    11 C4'         13.5210    29.4550    78.6600 C.3          1 SAM270   0.0000
    12 O4'         12.5920    28.5460    79.2200 O.3          1 SAM270   0.0000
    13 C3'         12.7880    30.7550    78.3690 C.3          1 SAM270   0.0000
    14 O3'         12.9150    31.1090    77.0160 O.3          1 SAM270   0.0000
    15 C2'         11.3380    30.4980    78.6970 C.3          1 SAM270   0.0000
    16 O2'         10.5940    30.4370    77.5040 O.3          1 SAM270   0.0000
    17 C1'         11.3180    29.1430    79.3770 C.3          1 SAM270   0.0000
    18 N9          11.0490    29.3310    80.8140 N.pl3        1 SAM270   0.0000
    19 C8          11.9760    29.6490    81.7730 C.2          1 SAM270   0.0000
    20 N7          11.3480    29.7410    82.9680 N.2          1 SAM270   0.0000
    21 C5          10.0330    29.4920    82.7840 C.ar         1 SAM270   0.0000
    22 C6           8.9590    29.4590    83.6620 C.ar         1 SAM270   0.0000
    23 N6           9.1390    29.7040    84.9570 N.pl3        1 SAM270   0.0000
    24 N1           7.7020    29.1720    83.1790 N.ar         1 SAM270   0.0000
    25 C2           7.5160    28.9180    81.8350 C.ar         1 SAM270   0.0000
    26 N3           8.5900    28.9520    80.9690 N.ar         1 SAM270   0.0000
    27 C4           9.8300    29.2320    81.4340 C.ar         1 SAM270   0.0000
    28 H1          18.0094    32.0956    82.8215 H            1 SAM270   0.0000
    29 H2          19.5586    31.5888    82.9202 H            1 SAM270   0.0000
    30 HA          18.1110    29.7977    83.0772 H            1 SAM270   0.0000
    31 HB1         16.2530    30.4816    81.9636 H            1 SAM270   0.0000
    32 HB2         16.8261    29.2336    81.0800 H            1 SAM270   0.0000
    33 HG1         17.6068    30.6317    79.4424 H            1 SAM270   0.0000
    34 HG2         17.4227    31.9504    80.3877 H            1 SAM270   0.0000
    35 HE1         13.6475    32.4053    80.6006 H            1 SAM270   0.0000
    36 HE2         14.6117    31.6073    81.6495 H            1 SAM270   0.0000
    37 HE3         15.0926    33.0370    81.0240 H            1 SAM270   0.0000
    38 H5'1        14.2609    29.6171    80.5903 H            1 SAM270   0.0000
    39 H5'2        15.3412    28.9906    79.5380 H            1 SAM270   0.0000
    40 H4'         13.8982    29.0792    77.8136 H            1 SAM270   0.0000
    41 H3'         13.1456    31.4868    78.9492 H            1 SAM270   0.0000
    42 H15         13.8823    31.2280    76.7920 H            1 SAM270   0.0000
    43 H2'         10.9793    31.2067    79.3046 H            1 SAM270   0.0000
    44 H17          9.6608    30.7520    77.6767 H            1 SAM270   0.0000
    45 H1'         10.6134    28.5631    78.9680 H            1 SAM270   0.0000
    46 H19         12.9535    29.7895    81.6155 H            1 SAM270   0.0000
    47 H20          8.3602    29.6784    85.5837 H            1 SAM270   0.0000
    48 H21         10.0532    29.9138    85.3038 H            1 SAM270   0.0000
    49 H22          6.6016    28.7090    81.4883 H            1 SAM270   0.0000
    50 H23         18.9201    31.9858    81.4705 H            1 SAM270   0.0000
@<TRIPOS>BOND
     1    1    2       1
     2    2    3       1
     3    2    6       1
     4    3    4      ar
     5    3    5      ar
     6    6    7       1
     7    7    8       1
     8    8    9       1
     9    8   10       1
    10   10   11       1
    11   11   12       1
    12   11   13       1
    13   12   17       1
    14   13   14       1
    15   13   15       1
    16   15   16       1
    17   15   17       1
    18   17   18       1
    19   18   19       1
    20   18   27       1
    21   19   20       2
    22   20   21       1
    23   21   22      ar
    24   21   27      ar
    25   22   23       1
    26   22   24      ar
    27   24   25      ar
    28   25   26      ar
    29   26   27      ar
    30    1   28       1
    31    1   29       1
    32    2   30       1
    33    1   50       1
    34    6   31       1
    35    6   32       1
    36    7   33       1
    37    7   34       1
    38    9   35       1
    39    9   36       1
    40    9   37       1
    41   10   38       1
    42   10   39       1
    43   11   40       1
    44   13   41       1
    45   14   42       1
    46   15   43       1
    47   16   44       1
    48   17   45       1
    49   19   46       1
    50   23   47       1
    51   23   48       1
    52   25   49       1
@<TRIPOS>SUBSTRUCTURE
     1 SAM270      1 GROUP             4 A     SAM     0 **** SAM A 270
