@<TRIPOS>MOLECULE
4pl4_ADP_4_ligand
   39    41     1     0     0
SMALL
NO_CHARGES


@<TRIPOS>ATOM
     1 PB          33.5180    -5.7300   150.8010 P.3          1 ADP1001   0.0000
     2 O1B         33.5200    -6.5360   149.5190 O.co2        1 ADP1001   0.0000
     3 O2B         32.9110    -4.3510   150.6820 O.co2        1 ADP1001  -1.0000
     4 O3B         33.0590    -6.4440   152.0480 O.co2        1 ADP1001  -1.0000
     5 PA          36.0350    -6.2160   152.1060 P.3          1 ADP1001   0.0000
     6 O1A         37.3930    -6.2090   151.4380 O.co2        1 ADP1001   0.0000
     7 O2A         35.4350    -7.5190   152.5900 O.co2        1 ADP1001  -1.0000
     8 O3A         35.0860    -5.4650   151.0370 O.3          1 ADP1001   0.0000
     9 O5'         36.0900    -5.2010   153.3610 O.3          1 ADP1001   0.0000
    10 C5'         35.0540    -4.2420   153.5600 C.3          1 ADP1001   0.0000
    11 C4'         35.5680    -2.8270   153.2720 C.3          1 ADP1001   0.0000
    12 O4'         36.8700    -2.6480   153.8400 O.3          1 ADP1001   0.0000
    13 C3'         35.7230    -2.4930   151.7860 C.3          1 ADP1001   0.0000
    14 O3'         34.5540    -1.8870   151.2070 O.3          1 ADP1001   0.0000
    15 C2'         36.8970    -1.5370   151.7520 C.3          1 ADP1001   0.0000
    16 O2'         36.3840    -0.2110   151.8650 O.3          1 ADP1001   0.0000
    17 C1'         37.6880    -1.8180   153.0120 C.3          1 ADP1001   0.0000
    18 N9          38.9500    -2.5350   152.6940 N.pl3        1 ADP1001   0.0000
    19 C8          39.0640    -3.8250   152.3010 C.2          1 ADP1001   0.0000
    20 N7          40.3640    -4.1830   152.0940 N.2          1 ADP1001   0.0000
    21 C5          41.1080    -3.0930   152.3660 C.ar         1 ADP1001   0.0000
    22 C6          42.5510    -2.7620   152.3540 C.ar         1 ADP1001   0.0000
    23 N6          43.4690    -3.6930   152.0030 N.pl3        1 ADP1001   0.0000
    24 N1          42.9150    -1.5020   152.7000 N.ar         1 ADP1001   0.0000
    25 C2          42.0100    -0.5590   153.0470 C.ar         1 ADP1001   0.0000
    26 N3          40.6820    -0.7860   153.0800 N.ar         1 ADP1001   0.0000
    27 C4          40.1780    -2.0090   152.7560 C.ar         1 ADP1001   0.0000
    28 H5'1        34.7384    -4.2907   154.5076 H            1 ADP1001   0.0000
    29 H5'2        34.2932    -4.4472   152.9443 H            1 ADP1001   0.0000
    30 H4'         34.9422    -2.1665   153.6869 H            1 ADP1001   0.0000
    31 H3'         35.9541    -3.3237   151.2794 H            1 ADP1001   0.0000
    32 H5          33.9527    -2.6001   150.8465 H            1 ADP1001   0.0000
    33 H2'         37.4515    -1.6546   150.9282 H            1 ADP1001   0.0000
    34 H7          35.4696    -0.1719   151.4621 H            1 ADP1001   0.0000
    35 H1'         37.8926    -0.9608   153.4846 H            1 ADP1001   0.0000
    36 H9          38.2873    -4.4426   152.1770 H            1 ADP1001   0.0000
    37 H10         44.4413    -3.4594   151.9981 H            1 ADP1001   0.0000
    38 H11         43.1748    -4.6143   151.7486 H            1 ADP1001   0.0000
    39 H12         42.3426     0.3519   153.2912 H            1 ADP1001   0.0000
@<TRIPOS>BOND
     1    1    2      ar
     2    1    3      ar
     3    1    4      ar
     4    1    8       1
     5    5    6      ar
     6    5    7      ar
     7    5    8       1
     8    5    9       1
     9    9   10       1
    10   10   11       1
    11   11   12       1
    12   11   13       1
    13   12   17       1
    14   13   14       1
    15   13   15       1
    16   15   16       1
    17   15   17       1
    18   17   18       1
    19   18   19       1
    20   18   27       1
    21   19   20       2
    22   20   21       1
    23   21   22      ar
    24   21   27      ar
    25   22   23       1
    26   22   24      ar
    27   24   25      ar
    28   25   26      ar
    29   26   27      ar
    30   25   39       1
    31   23   38       1
    32   23   37       1
    33   10   28       1
    34   10   29       1
    35   11   30       1
    36   13   31       1
    37   14   32       1
    38   15   33       1
    39   16   34       1
    40   17   35       1
    41   19   36       1
@<TRIPOS>SUBSTRUCTURE
     1 ADP1001     1 GROUP             4 D     ADP     0 **** ADP D1001
