@<TRIPOS>MOLECULE
3nef_PYV_1_ligand
   35    37     1     0     0
SMALL
NO_CHARGES


@<TRIPOS>ATOM
     1 S          -54.9610    40.2900   -22.2550 S.o2         1 PYV201   0.0000
     2 BR         -60.9540    39.8970   -24.3040 Br           1 PYV201   0.0000
     3 C1         -59.1820    40.1190   -23.6700 C.ar         1 PYV201   0.0000
     4 N1         -54.9590    40.8390   -20.7420 N.3          1 PYV201   0.0000
     5 O1         -54.1590    41.1450   -23.0720 O.2          1 PYV201   0.0000
     6 C2         -58.6460    41.4640   -23.3350 C.ar         1 PYV201   0.0000
     7 N2         -57.3020    39.7430   -18.0860 N.ar         1 PYV201   0.0000
     8 O2         -54.4580    38.9460   -22.2920 O.2          1 PYV201   0.0000
     9 C3         -57.2490    41.5630   -22.8760 C.ar         1 PYV201   0.0000
    10 C4         -56.4650    40.3140   -22.7660 C.ar         1 PYV201   0.0000
    11 C5         -57.0540    39.1090   -23.1020 C.ar         1 PYV201   0.0000
    12 C6         -58.3670    39.0070   -23.5340 C.ar         1 PYV201   0.0000
    13 C7         -56.7330    42.8100   -22.5750 C.ar         1 PYV201   0.0000
    14 C8         -57.5360    43.9480   -22.7050 C.ar         1 PYV201   0.0000
    15 C9         -58.8540    43.8530   -23.1300 C.ar         1 PYV201   0.0000
    16 C10        -59.4090    42.6160   -23.4570 C.ar         1 PYV201   0.0000
    17 C11        -55.3270    40.0160   -19.6050 C.3          1 PYV201   0.0000
    18 C12        -56.7260    40.3910   -19.1230 C.ar         1 PYV201   0.0000
    19 C13        -58.5280    40.0500   -17.6340 C.ar         1 PYV201   0.0000
    20 C14        -59.2690    41.0630   -18.2240 C.ar         1 PYV201   0.0000
    21 C15        -58.7010    41.7430   -19.2800 C.ar         1 PYV201   0.0000
    22 C16        -57.4290    41.4150   -19.7280 C.ar         1 PYV201   0.0000
    23 H1         -54.0270    41.1547   -20.5641 H            1 PYV201   0.0000
    24 H2         -56.5084    38.2740   -23.0301 H            1 PYV201   0.0000
    25 H3         -58.7369    38.1043   -23.7540 H            1 PYV201   0.0000
    26 H4         -55.7865    42.8983   -22.2646 H            1 PYV201   0.0000
    27 H5         -57.1537    44.8461   -22.4878 H            1 PYV201   0.0000
    28 H6         -59.4114    44.6801   -23.2025 H            1 PYV201   0.0000
    29 H7         -60.3542    42.5597   -23.7785 H            1 PYV201   0.0000
    30 H8         -54.6711    40.1615   -18.8643 H            1 PYV201   0.0000
    31 H9         -55.3164    39.0533   -19.8753 H            1 PYV201   0.0000
    32 H10        -58.9117    39.5422   -16.8626 H            1 PYV201   0.0000
    33 H11        -60.1848    41.2925   -17.8944 H            1 PYV201   0.0000
    34 H12        -59.2097    42.4788   -19.7270 H            1 PYV201   0.0000
    35 H13        -57.0213    41.9199   -20.4888 H            1 PYV201   0.0000
@<TRIPOS>BOND
     1    1    4       1
     2    1    5       2
     3    1    8       2
     4    1   10       1
     5    2    3       1
     6    3    6      ar
     7    3   12      ar
     8    4   17       1
     9    6    9      ar
    10    6   16      ar
    11    7   18      ar
    12    7   19      ar
    13    9   10      ar
    14    9   13      ar
    15   10   11      ar
    16   11   12      ar
    17   13   14      ar
    18   14   15      ar
    19   15   16      ar
    20   17   18       1
    21   18   22      ar
    22   19   20      ar
    23   20   21      ar
    24   21   22      ar
    25    4   23       1
    26   11   24       1
    27   12   25       1
    28   13   26       1
    29   14   27       1
    30   15   28       1
    31   16   29       1
    32   17   30       1
    33   17   31       1
    34   19   32       1
    35   20   33       1
    36   21   34       1
    37   22   35       1
@<TRIPOS>SUBSTRUCTURE
     1 PYV201      1 GROUP             4 A     PYV     0 **** PYV A 201
