@<TRIPOS>MOLECULE
2wl9_MBD_2_ligand
   16    16     1     0     0
SMALL
NO_CHARGES


@<TRIPOS>ATOM
     1 CA1          4.0780    30.4230   -36.0470 C.ar         1 MBD1303   0.0000
     2 OA1          4.1910    29.1020   -35.9710 O.3          1 MBD1303   0.0000
     3 CA2          5.2870    31.2110   -35.9770 C.ar         1 MBD1303   0.0000
     4 OA2          6.4240    30.5640   -35.8380 O.3          1 MBD1303  -1.0000
     5 CA3          5.2110    32.5470   -36.0440 C.ar         1 MBD1303   0.0000
     6 CB3          6.4250    33.3730   -35.9800 C.3          1 MBD1303   0.0000
     7 CA4          4.0040    33.1580   -36.1560 C.ar         1 MBD1303   0.0000
     8 CA5          2.8560    32.4210   -36.2210 C.ar         1 MBD1303   0.0000
     9 CA6          2.8780    31.0580   -36.1610 C.ar         1 MBD1303   0.0000
    10 HA1          5.0929    28.6824   -35.8686 H            1 MBD1303   0.0000
    11 HB31         6.1747    34.3390   -36.0448 H            1 MBD1303   0.0000
    12 HB32         6.8952    33.2079   -35.1130 H            1 MBD1303   0.0000
    13 HB33         7.0311    33.1341   -36.7387 H            1 MBD1303   0.0000
    14 HA4          3.9550    34.1562   -36.1912 H            1 MBD1303   0.0000
    15 HA5          1.9785    32.8914   -36.3148 H            1 MBD1303   0.0000
    16 HA6          2.0273    30.5338   -36.2001 H            1 MBD1303   0.0000
@<TRIPOS>BOND
     1    1    2       1
     2    1    3      ar
     3    1    9      ar
     4    3    4       1
     5    3    5      ar
     6    5    6       1
     7    5    7      ar
     8    7    8      ar
     9    8    9      ar
    10    2   10       1
    11    9   16       1
    12    6   11       1
    13    6   12       1
    14    6   13       1
    15    7   14       1
    16    8   15       1
@<TRIPOS>SUBSTRUCTURE
     1 MBD1303     1 GROUP             4 D     MBD     0 **** MBD D1303
