@<TRIPOS>MOLECULE
5fmm_MGT_1_ligand
   49    51     1     0     0
SMALL
NO_CHARGES


@<TRIPOS>ATOM
     1 PG          53.4510   -30.8350     9.4720 P.3          1 MGT1676   0.0000
     2 O1G         53.5990   -29.5710     8.6570 O.co2        1 MGT1676   0.0000
     3 O2G         54.3670   -31.9740     9.0880 O.co2        1 MGT1676  -1.0000
     4 O3G         53.4240   -30.6260    10.9730 O.co2        1 MGT1676  -1.0000
     5 O3B         51.9860   -31.4300     9.1150 O.3          1 MGT1676   0.0000
     6 PB          50.8700   -30.7490     8.1840 P.3          1 MGT1676   0.0000
     7 O1B         50.2950   -29.5290     8.8490 O.co2        1 MGT1676   0.0000
     8 O2B         51.4040   -30.6390     6.7740 O.co2        1 MGT1676  -1.0000
     9 O3A         49.7120   -31.8620     8.2090 O.3          1 MGT1676   0.0000
    10 PA          49.9300   -33.4060     7.7830 P.3          1 MGT1676   0.0000
    11 O1A         48.5880   -33.9310     7.3510 O.co2        1 MGT1676   0.0000
    12 O2A         51.1020   -33.5520     6.8450 O.co2        1 MGT1676  -1.0000
    13 O5'         50.3300   -34.1160     9.1670 O.3          1 MGT1676   0.0000
    14 C5'         49.3460   -34.3280    10.1710 C.3          1 MGT1676   0.0000
    15 C4'         50.0230   -34.4250    11.5280 C.3          1 MGT1676   0.0000
    16 O4'         50.9740   -35.4840    11.4870 O.3          1 MGT1676   0.0000
    17 C3'         50.7890   -33.1630    11.9320 C.3          1 MGT1676   0.0000
    18 O3'         50.5740   -32.8720    13.3230 O.3          1 MGT1676   0.0000
    19 C2'         52.2400   -33.5180    11.6810 C.3          1 MGT1676   0.0000
    20 O2'         53.2060   -32.8290    12.4800 O.3          1 MGT1676   0.0000
    21 C1'         52.2060   -34.9850    12.0140 C.3          1 MGT1676   0.0000
    22 N9          53.4040   -35.6750    11.4930 N.pl3        1 MGT1676   0.0000
    23 C8          53.4560   -35.9730    10.0620 C.3          1 MGT1676   0.0000
    24 N7          54.7630   -36.6250    10.0840 N.pl3        1 MGT1676   0.0000
    25 CM7         55.2010   -37.1040     8.7450 C.3          1 MGT1676   0.0000
    26 C5          55.3440   -36.6890    11.2840 C.2          1 MGT1676   0.0000
    27 C6          56.6070   -37.2420    11.7950 C.2          1 MGT1676   0.0000
    28 O6          57.4270   -37.7950    11.0440 O.2          1 MGT1676   0.0000
    29 N1          56.8310   -37.1030    13.1120 N.pl3        1 MGT1676   0.0000
    30 C2          55.9420   -36.5000    13.9510 C.2          1 MGT1676   0.0000
    31 N2          56.1970   -36.3820    15.2740 N.pl3        1 MGT1676   0.0000
    32 N3          54.7620   -35.9750    13.5360 N.2          1 MGT1676   0.0000
    33 C4          54.4250   -36.0530    12.2380 C.2          1 MGT1676   0.0000
    34 H5'1        48.8541   -35.1779     9.9820 H            1 MGT1676   0.0000
    35 H5'2        48.7016   -33.5633    10.1734 H            1 MGT1676   0.0000
    36 H4'         49.3348   -34.6285    12.2244 H            1 MGT1676   0.0000
    37 H3'         50.5135   -32.3875    11.3639 H            1 MGT1676   0.0000
    38 H5          51.2728   -33.3312    13.8715 H            1 MGT1676   0.0000
    39 H2'         52.4547   -33.3965    10.7119 H            1 MGT1676   0.0000
    40 H7          53.4848   -31.9887    12.0151 H            1 MGT1676   0.0000
    41 H1'         52.1895   -35.0846    13.0089 H            1 MGT1676   0.0000
    42 H9          53.4458   -35.1487     9.4959 H            1 MGT1676   0.0000
    43 H10         52.7234   -36.5875     9.7693 H            1 MGT1676   0.0000
    44 HM71        56.0979   -37.5391     8.8236 H            1 MGT1676   0.0000
    45 HM72        54.5387   -37.7664     8.3949 H            1 MGT1676   0.0000
    46 HM73        55.2607   -36.3284     8.1166 H            1 MGT1676   0.0000
    47 H14         57.6854   -37.4566    13.4928 H            1 MGT1676   0.0000
    48 H15         55.5322   -35.9363    15.8735 H            1 MGT1676   0.0000
    49 H16         57.0503   -36.7405    15.6527 H            1 MGT1676   0.0000
@<TRIPOS>BOND
     1    1    2      ar
     2    1    3      ar
     3    1    4      ar
     4    1    5       1
     5    5    6       1
     6    6    7      ar
     7    6    8      ar
     8    6    9       1
     9    9   10       1
    10   10   11      ar
    11   10   12      ar
    12   10   13       1
    13   13   14       1
    14   14   15       1
    15   15   16       1
    16   15   17       1
    17   16   21       1
    18   17   18       1
    19   17   19       1
    20   19   20       1
    21   19   21       1
    22   21   22       1
    23   22   23       1
    24   22   33       1
    25   23   24       1
    26   24   25       1
    27   24   26       1
    28   26   27       1
    29   26   33       2
    30   27   28       2
    31   27   29       1
    32   29   30       1
    33   30   31       1
    34   30   32       2
    35   32   33       1
    36   31   49       1
    37   31   48       1
    38   29   47       1
    39   25   46       1
    40   14   34       1
    41   14   35       1
    42   15   36       1
    43   17   37       1
    44   18   38       1
    45   19   39       1
    46   20   40       1
    47   21   41       1
    48   23   42       1
    49   23   43       1
    50   25   44       1
    51   25   45       1
@<TRIPOS>SUBSTRUCTURE
     1 MGT1676     1 GROUP             4 A     MGT     0 **** MGT A1676
