@<TRIPOS>MOLECULE
3sao_DBH_1_ligand
   15    15     1     0     0
SMALL
NO_CHARGES


@<TRIPOS>ATOM
     1 O17        -38.3490    -1.8150   -44.6350 O.co2        1 DBH162   0.0000
     2 C21        -38.2230    -0.6180   -44.2530 C.2          1 DBH162   0.0000
     3 O9         -38.4800    -0.2720   -43.0690 O.co2        1 DBH162  -1.0000
     4 C18        -37.6130     0.4240   -45.1520 C.ar         1 DBH162   0.0000
     5 C15        -37.4770     1.7230   -44.6710 C.ar         1 DBH162   0.0000
     6 C12        -36.9150     2.7090   -45.4460 C.ar         1 DBH162   0.0000
     7 C3         -37.1780     0.1550   -46.4260 C.ar         1 DBH162   0.0000
     8 O3         -37.3190    -1.1120   -46.9140 O.3          1 DBH162   0.0000
     9 C6         -36.5490     1.1560   -47.1650 C.ar         1 DBH162   0.0000
    10 C9         -36.4410     2.4360   -46.6870 C.ar         1 DBH162   0.0000
    11 O6         -36.0630     0.9830   -48.4060 O.3          1 DBH162  -1.0000
    12 H1         -37.7929     1.9421   -43.7478 H            1 DBH162   0.0000
    13 H2         -36.8547     3.6414   -45.0897 H            1 DBH162   0.0000
    14 H3         -37.7327    -1.8234   -46.3459 H            1 DBH162   0.0000
    15 H4         -36.0212     3.1541   -47.2421 H            1 DBH162   0.0000
@<TRIPOS>BOND
     1    1    2      ar
     2    2    3      ar
     3    2    4       1
     4    4    5      ar
     5    4    7      ar
     6    5    6      ar
     7    6   10      ar
     8    7    8       1
     9    7    9      ar
    10    9   10      ar
    11    9   11       1
    12   10   15       1
    13    5   12       1
    14    6   13       1
    15    8   14       1
@<TRIPOS>SUBSTRUCTURE
     1 DBH162      1 GROUP             4 B     DBH     0 **** DBH B 162
