@<TRIPOS>MOLECULE
1vc2_NAD_1_ligand
   70    74     1     0     0
SMALL
NO_CHARGES


@<TRIPOS>ATOM
     1 PA          38.4260    -4.4630   -54.9240 P.3          1 NAD336   0.0000
     2 O1A         37.5560    -3.6240   -55.7360 O.co2        1 NAD336   0.0000
     3 O2A         39.7700    -3.8860   -54.7710 O.co2        1 NAD336  -1.0000
     4 O5B         37.9410    -4.6680   -53.4180 O.3          1 NAD336   0.0000
     5 C5B         36.5480    -4.5730   -53.0270 C.3          1 NAD336   0.0000
     6 C4B         36.3690    -3.5110   -51.9580 C.3          1 NAD336   0.0000
     7 O4B         36.7080    -4.0650   -50.6500 O.3          1 NAD336   0.0000
     8 C3B         37.2630    -2.2420   -52.0630 C.3          1 NAD336   0.0000
     9 O3B         36.4960    -1.0490   -52.3270 O.3          1 NAD336   0.0000
    10 C2B         37.9910    -2.2390   -50.7190 C.3          1 NAD336   0.0000
    11 O2B         38.2280    -0.8880   -50.2620 O.3          1 NAD336   0.0000
    12 C1B         37.0050    -2.9780   -49.8520 C.3          1 NAD336   0.0000
    13 N9A         37.5860    -3.4110   -48.5690 N.pl3        1 NAD336   0.0000
    14 C8A         38.8720    -3.8440   -48.2750 C.2          1 NAD336   0.0000
    15 N7A         39.0660    -4.1610   -46.9620 N.2          1 NAD336   0.0000
    16 C5A         37.8060    -3.9070   -46.3910 C.ar         1 NAD336   0.0000
    17 C6A         37.3170    -4.0370   -45.0310 C.ar         1 NAD336   0.0000
    18 N6A         38.0770    -4.4490   -44.0190 N.pl3        1 NAD336   0.0000
    19 N1A         35.9830    -3.6960   -44.8060 N.ar         1 NAD336   0.0000
    20 C2A         35.1940    -3.2630   -45.8630 C.ar         1 NAD336   0.0000
    21 N3A         35.5490    -3.1100   -47.1380 N.ar         1 NAD336   0.0000
    22 C4A         36.8740    -3.4520   -47.3580 C.ar         1 NAD336   0.0000
    23 O3          38.4470    -5.9060   -55.5520 O.3          1 NAD336   0.0000
    24 PN          37.2770    -6.8200   -56.1860 P.3          1 NAD336   0.0000
    25 O1N         37.6660    -7.0560   -57.5990 O.co2        1 NAD336   0.0000
    26 O2N         36.0160    -6.0770   -56.0500 O.co2        1 NAD336  -1.0000
    27 O5D         37.2740    -8.2460   -55.5020 O.3          1 NAD336   0.0000
    28 C5D         36.7270    -8.4470   -54.1870 C.3          1 NAD336   0.0000
    29 C4D         36.8220    -9.9350   -53.8750 C.3          1 NAD336   0.0000
    30 O4D         36.0990   -10.6450   -54.9280 O.3          1 NAD336   0.0000
    31 C3D         38.2320   -10.5260   -53.8290 C.3          1 NAD336   0.0000
    32 O3D         38.4290   -11.4940   -52.7860 O.3          1 NAD336   0.0000
    33 C2D         38.3720   -11.1180   -55.2260 C.3          1 NAD336   0.0000
    34 O2D         39.3910   -12.1470   -55.2530 O.3          1 NAD336   0.0000
    35 C1D         36.9660   -11.6010   -55.4820 C.3          1 NAD336   0.0000
    36 N1N         36.6620   -11.8290   -56.9290 N.ar         1 NAD336   1.0000
    37 C2N         37.1220   -10.8570   -57.8160 C.ar         1 NAD336   0.0000
    38 C3N         36.8650   -11.0690   -59.1680 C.ar         1 NAD336   0.0000
    39 C7N         37.3280   -10.0670   -60.2350 C.2          1 NAD336   0.0000
    40 O7N         37.0940   -10.2870   -61.4130 O.2          1 NAD336   0.0000
    41 N7N         37.9830    -8.9700   -59.8660 N.am         1 NAD336   0.0000
    42 C4N         36.1450   -12.2490   -59.6310 C.ar         1 NAD336   0.0000
    43 C5N         35.7350   -13.1510   -58.6180 C.ar         1 NAD336   0.0000
    44 C6N         35.9560   -13.0110   -57.2700 C.ar         1 NAD336   0.0000
    45 H5B1        36.2458    -5.4560   -52.6679 H            1 NAD336   0.0000
    46 H5B2        35.9973    -4.3320   -53.8262 H            1 NAD336   0.0000
    47 H4B         35.4103    -3.2270   -51.9465 H            1 NAD336   0.0000
    48 H3B         37.9302    -2.3713   -52.7965 H            1 NAD336   0.0000
    49 H5          35.8398    -0.9039   -51.5865 H            1 NAD336   0.0000
    50 H2B         38.8512    -2.7448   -50.7835 H            1 NAD336   0.0000
    51 H7          37.3539    -0.4143   -50.1545 H            1 NAD336   0.0000
    52 H1B         36.1881    -2.4223   -49.6976 H            1 NAD336   0.0000
    53 H8A         39.5925    -3.9171   -48.9646 H            1 NAD336   0.0000
    54 H6A1        37.6897    -4.5209   -43.0998 H            1 NAD336   0.0000
    55 H6A2        39.0353    -4.6866   -44.1778 H            1 NAD336   0.0000
    56 H2A         34.2451    -3.0390   -45.6407 H            1 NAD336   0.0000
    57 H5D1        35.7711    -8.1540   -54.1662 H            1 NAD336   0.0000
    58 H5D2        37.2509    -7.9231   -53.5154 H            1 NAD336   0.0000
    59 H4D         36.3706   -10.1101   -53.0000 H            1 NAD336   0.0000
    60 H3D         38.8947    -9.7853   -53.7186 H            1 NAD336   0.0000
    61 H17         39.3691   -11.8333   -52.8194 H            1 NAD336   0.0000
    62 H2D         38.6045   -10.3955   -55.8771 H            1 NAD336   0.0000
    63 H19         39.4642   -12.5195   -56.1782 H            1 NAD336   0.0000
    64 H1D         36.8361   -12.4639   -54.9936 H            1 NAD336   0.0000
    65 H2N         37.6130   -10.0464   -57.4967 H            1 NAD336   0.0000
    66 H7N1        38.2873    -8.3134   -60.5561 H            1 NAD336   0.0000
    67 H7N2        38.1712    -8.8017   -58.8984 H            1 NAD336   0.0000
    68 H4N         35.9532   -12.4111   -60.5990 H            1 NAD336   0.0000
    69 H5N         35.2375   -13.9669   -58.9127 H            1 NAD336   0.0000
    70 H6N         35.6483   -13.6793   -56.5927 H            1 NAD336   0.0000
@<TRIPOS>BOND
     1    1    2      ar
     2    1    3      ar
     3    1    4       1
     4    1   23       1
     5    4    5       1
     6    5    6       1
     7    6    7       1
     8    6    8       1
     9    7   12       1
    10    8    9       1
    11    8   10       1
    12   10   11       1
    13   10   12       1
    14   12   13       1
    15   13   14       1
    16   13   22       1
    17   14   15       2
    18   15   16       1
    19   16   17      ar
    20   16   22      ar
    21   17   18       1
    22   17   19      ar
    23   19   20      ar
    24   20   21      ar
    25   21   22      ar
    26   23   24       1
    27   24   25      ar
    28   24   26      ar
    29   24   27       1
    30   27   28       1
    31   28   29       1
    32   29   30       1
    33   29   31       1
    34   30   35       1
    35   31   32       1
    36   31   33       1
    37   33   34       1
    38   33   35       1
    39   35   36       1
    40   36   37      ar
    41   36   44      ar
    42   37   38      ar
    43   38   39       1
    44   38   42      ar
    45   39   40       2
    46   39   41      am
    47   42   43      ar
    48   43   44      ar
    49   44   70       1
    50    5   45       1
    51    5   46       1
    52    6   47       1
    53    8   48       1
    54    9   49       1
    55   10   50       1
    56   11   51       1
    57   12   52       1
    58   14   53       1
    59   18   54       1
    60   18   55       1
    61   20   56       1
    62   43   69       1
    63   28   57       1
    64   28   58       1
    65   29   59       1
    66   31   60       1
    67   32   61       1
    68   33   62       1
    69   34   63       1
    70   35   64       1
    71   37   65       1
    72   41   66       1
    73   41   67       1
    74   42   68       1
@<TRIPOS>SUBSTRUCTURE
     1 NAD336      1 GROUP             4 A     NAD     0 **** NAD A 336
