@<TRIPOS>MOLECULE
2j9l_ATP_4_ligand
   43    45     1     0     0
SMALL
NO_CHARGES


@<TRIPOS>ATOM
     1 PG          46.0930    76.7990    52.3410 P.3          1 ATP1753   0.0000
     2 O1G         45.5540    75.5480    51.4420 O.co2        1 ATP1753   0.0000
     3 O2G         44.7550    77.4430    53.0440 O.co2        1 ATP1753  -1.0000
     4 O3G         46.8540    77.8000    51.5460 O.co2        1 ATP1753  -1.0000
     5 PB          46.9120    76.6190    54.9820 P.3          1 ATP1753   0.0000
     6 O1B         48.1200    76.1460    55.6680 O.co2        1 ATP1753   0.0000
     7 O2B         45.5780    76.2720    55.4730 O.co2        1 ATP1753  -1.0000
     8 O3B         47.0000    76.1110    53.4940 O.3          1 ATP1753   0.0000
     9 PA          47.0610    79.2910    55.9970 P.3          1 ATP1753   0.0000
    10 O1A         47.4040    80.5700    55.3690 O.co2        1 ATP1753   0.0000
    11 O2A         45.8590    79.1970    56.8320 O.co2        1 ATP1753  -1.0000
    12 O3A         47.0160    78.2100    54.8100 O.3          1 ATP1753   0.0000
    13 O5'         48.3030    78.8610    56.8500 O.3          1 ATP1753   0.0000
    14 C5'         49.6210    78.8990    56.3370 C.3          1 ATP1753   0.0000
    15 C4'         50.6260    78.4810    57.4280 C.3          1 ATP1753   0.0000
    16 O4'         50.6910    79.5680    58.3760 O.3          1 ATP1753   0.0000
    17 C3'         50.2120    77.2450    58.2350 C.3          1 ATP1753   0.0000
    18 O3'         51.3870    76.6330    58.7680 O.3          1 ATP1753   0.0000
    19 C2'         49.4170    77.8200    59.3850 C.3          1 ATP1753   0.0000
    20 O2'         49.6020    77.0010    60.5430 O.3          1 ATP1753   0.0000
    21 C1'         50.1210    79.1480    59.6300 C.3          1 ATP1753   0.0000
    22 N9          49.1770    80.1940    60.0390 N.pl3        1 ATP1753   0.0000
    23 C8          47.8820    80.2780    59.7420 C.2          1 ATP1753   0.0000
    24 N7          47.3750    81.3810    60.3040 N.2          1 ATP1753   0.0000
    25 C5          48.3560    81.9850    60.9600 C.ar         1 ATP1753   0.0000
    26 C6          48.4350    83.1380    61.7220 C.ar         1 ATP1753   0.0000
    27 N6          47.3600    83.8980    61.9160 N.pl3        1 ATP1753   0.0000
    28 N1          49.6120    83.4770    62.2570 N.ar         1 ATP1753   0.0000
    29 C2          50.6900    82.7300    62.0770 C.ar         1 ATP1753   0.0000
    30 N3          50.6460    81.6230    61.3560 N.ar         1 ATP1753   0.0000
    31 C4          49.4970    81.2290    60.7940 C.ar         1 ATP1753   0.0000
    32 H5'1        49.8308    79.8281    56.0325 H            1 ATP1753   0.0000
    33 H5'2        49.6928    78.2703    55.5627 H            1 ATP1753   0.0000
    34 H4'         51.5269    78.3330    57.0200 H            1 ATP1753   0.0000
    35 H3'         49.6713    76.6051    57.6889 H            1 ATP1753   0.0000
    36 H5          51.2393    75.6479    58.8555 H            1 ATP1753   0.0000
    37 H2'         48.4510    77.9397    59.1557 H            1 ATP1753   0.0000
    38 H7          49.2859    76.0724    60.3485 H            1 ATP1753   0.0000
    39 H1'         50.8382    79.0390    60.3183 H            1 ATP1753   0.0000
    40 H9          47.3702    79.6217    59.1876 H            1 ATP1753   0.0000
    41 H10         47.4281    84.7289    62.4682 H            1 ATP1753   0.0000
    42 H11         46.4840    83.6382    61.5096 H            1 ATP1753   0.0000
    43 H12         51.5547    83.0087    62.4948 H            1 ATP1753   0.0000
@<TRIPOS>BOND
     1    1    2      ar
     2    1    3      ar
     3    1    4      ar
     4    1    8       1
     5    5    6      ar
     6    5    7      ar
     7    5    8       1
     8    5   12       1
     9    9   10      ar
    10    9   11      ar
    11    9   12       1
    12    9   13       1
    13   13   14       1
    14   14   15       1
    15   15   16       1
    16   15   17       1
    17   16   21       1
    18   17   18       1
    19   17   19       1
    20   19   20       1
    21   19   21       1
    22   21   22       1
    23   22   23       1
    24   22   31       1
    25   23   24       2
    26   24   25       1
    27   25   26      ar
    28   25   31      ar
    29   26   27       1
    30   26   28      ar
    31   28   29      ar
    32   29   30      ar
    33   30   31      ar
    34   29   43       1
    35   27   42       1
    36   27   41       1
    37   23   40       1
    38   14   32       1
    39   14   33       1
    40   15   34       1
    41   17   35       1
    42   18   36       1
    43   19   37       1
    44   20   38       1
    45   21   39       1
@<TRIPOS>SUBSTRUCTURE
     1 ATP1753     1 GROUP             4 D     ATP     0 **** ATP D1753
