@<TRIPOS>MOLECULE
3htj_ET_2_ligand
   44    47     1     0     0
SMALL
NO_CHARGES


@<TRIPOS>ATOM
     1 C1         -14.7200    21.8050    -6.9550 C.ar         1 ET201    0.0000
     2 C2         -14.9660    20.5470    -7.4690 C.ar         1 ET201    0.0000
     3 C3         -15.1250    19.4220    -6.6080 C.ar         1 ET201    0.0000
     4 C4         -15.0310    19.5750    -5.1960 C.ar         1 ET201    0.0000
     5 N5         -14.6610    21.0760    -3.2090 N.ar         1 ET201    1.0000
     6 C6         -14.4080    22.3240    -2.6530 C.ar         1 ET201    0.0000
     7 C7         -13.9770    24.8550    -3.0360 C.ar         1 ET201    0.0000
     8 C8         -13.8260    25.9570    -3.9060 C.ar         1 ET201    0.0000
     9 C9         -13.9340    25.7900    -5.3110 C.ar         1 ET201    0.0000
    10 C10        -14.1890    24.5370    -5.8480 C.ar         1 ET201    0.0000
    11 C11        -14.2420    23.5390    -3.5490 C.ar         1 ET201    0.0000
    12 C12        -14.3480    23.3800    -4.9960 C.ar         1 ET201    0.0000
    13 C13        -14.6170    22.0150    -5.5450 C.ar         1 ET201    0.0000
    14 C14        -14.7690    20.8850    -4.6130 C.ar         1 ET201    0.0000
    15 C15        -14.2860    22.5080    -1.1610 C.ar         1 ET201    0.0000
    16 C16        -12.9880    22.4700    -0.5480 C.ar         1 ET201    0.0000
    17 C17        -12.8580    22.6410     0.8380 C.ar         1 ET201    0.0000
    18 C18        -13.9990    22.8480     1.6350 C.ar         1 ET201    0.0000
    19 C19        -15.2860    22.8880     1.0440 C.ar         1 ET201    0.0000
    20 C20        -15.4400    22.7210    -0.3500 C.ar         1 ET201    0.0000
    21 C21        -14.8330    19.8680    -2.2980 C.3          1 ET201    0.0000
    22 C22        -13.5140    19.1430    -1.9640 C.3          1 ET201    0.0000
    23 N23        -15.3800    18.1530    -7.1720 N.pl3        1 ET201    0.0000
    24 N24        -13.5660    27.2230    -3.3710 N.pl3        1 ET201    0.0000
    25 H1         -14.6124    22.5798    -7.5780 H            1 ET201    0.0000
    26 H2         -15.0335    20.4235    -8.4590 H            1 ET201    0.0000
    27 H3         -15.1453    18.7796    -4.6008 H            1 ET201    0.0000
    28 H4         -13.8984    24.9923    -2.0486 H            1 ET201    0.0000
    29 H5         -13.8258    26.5787    -5.9162 H            1 ET201    0.0000
    30 H6         -14.2640    24.4323    -6.8397 H            1 ET201    0.0000
    31 H7         -12.1748    22.3213    -1.1107 H            1 ET201    0.0000
    32 H8         -11.9522    22.6157     1.2609 H            1 ET201    0.0000
    33 H9         -13.9010    22.9674     2.6230 H            1 ET201    0.0000
    34 H10        -16.0914    23.0356     1.6181 H            1 ET201    0.0000
    35 H11        -16.3495    22.7518    -0.7646 H            1 ET201    0.0000
    36 H12        -15.4438    19.2177    -2.7497 H            1 ET201    0.0000
    37 H13        -15.2482    20.1760    -1.4420 H            1 ET201    0.0000
    38 H14        -13.7037    18.3648    -1.3653 H            1 ET201    0.0000
    39 H15        -13.0892    18.8178    -2.8089 H            1 ET201    0.0000
    40 H16        -12.8936    19.7761    -1.5012 H            1 ET201    0.0000
    41 H17        -15.4935    17.3559    -6.5789 H            1 ET201    0.0000
    42 H18        -15.4471    18.0513    -8.1645 H            1 ET201    0.0000
    43 H19        -13.4574    28.0099    -3.9785 H            1 ET201    0.0000
    44 H20        -13.4887    27.3412    -2.3810 H            1 ET201    0.0000
@<TRIPOS>BOND
     1    1    2      ar
     2    1   13      ar
     3    2    3      ar
     4    3    4      ar
     5    3   23       1
     6    4   14      ar
     7    5    6      ar
     8    5   14      ar
     9    5   21       1
    10    6   11      ar
    11    6   15       1
    12    7    8      ar
    13    7   11      ar
    14    8    9      ar
    15    8   24       1
    16    9   10      ar
    17   10   12      ar
    18   11   12      ar
    19   12   13      ar
    20   13   14      ar
    21   15   16      ar
    22   15   20      ar
    23   16   17      ar
    24   17   18      ar
    25   18   19      ar
    26   19   20      ar
    27   21   22       1
    28    1   25       1
    29    2   26       1
    30    4   27       1
    31    7   28       1
    32    9   29       1
    33   10   30       1
    34   16   31       1
    35   17   32       1
    36   18   33       1
    37   19   34       1
    38   20   35       1
    39   21   36       1
    40   21   37       1
    41   22   38       1
    42   22   39       1
    43   22   40       1
    44   23   41       1
    45   23   42       1
    46   24   43       1
    47   24   44       1
@<TRIPOS>SUBSTRUCTURE
     1 ET201       1 GROUP             4 B      ET     0 ****  ET B 201
