@<TRIPOS>MOLECULE
1nec_FMN_2_ligand
   50    52     1     0     0
SMALL
NO_CHARGES


@<TRIPOS>ATOM
     1 N1          -2.7720    -0.6750     7.5700 N.2          1 FMN218   0.0000
     2 C2          -3.5090    -1.2850     6.6020 C.2          1 FMN218   0.0000
     3 O2          -3.1100    -1.4280     5.4680 O.2          1 FMN218   0.0000
     4 N3          -4.7910    -1.8490     6.8640 N.pl3        1 FMN218   0.0000
     5 C4          -5.4180    -1.7680     8.0300 C.2          1 FMN218   0.0000
     6 O4          -6.5480    -2.2390     8.2020 O.2          1 FMN218   0.0000
     7 C4A         -4.6610    -1.0750     9.0640 C.2          1 FMN218   0.0000
     8 N5          -5.1690    -1.0640    10.2540 N.2          1 FMN218   0.0000
     9 C5A         -4.3880    -0.5280    11.2410 C.ar         1 FMN218   0.0000
    10 C6          -4.8480    -0.6290    12.5930 C.ar         1 FMN218   0.0000
    11 C7          -4.1110    -0.1560    13.6090 C.ar         1 FMN218   0.0000
    12 C7M         -4.5710    -0.1770    15.0470 C.3          1 FMN218   0.0000
    13 C8          -2.8140     0.3960    13.3810 C.ar         1 FMN218   0.0000
    14 C8M         -1.8990     0.8600    14.4910 C.3          1 FMN218   0.0000
    15 C9          -2.3790     0.4460    12.0950 C.ar         1 FMN218   0.0000
    16 C9A         -3.1080     0.0130    11.0220 C.ar         1 FMN218   0.0000
    17 N10         -2.5960     0.0060     9.7360 N.pl3        1 FMN218   0.0000
    18 C10         -3.3430    -0.5380     8.7450 C.2          1 FMN218   0.0000
    19 C1'         -1.4800     0.8400     9.3360 C.3          1 FMN218   0.0000
    20 C2'         -1.4630     2.3100     9.6810 C.3          1 FMN218   0.0000
    21 O2'         -1.9020     3.0290     8.5300 O.3          1 FMN218   0.0000
    22 C3'         -0.0320     2.7730     9.9900 C.3          1 FMN218   0.0000
    23 O3'          0.4710     2.1660    11.2350 O.3          1 FMN218   0.0000
    24 C4'          0.3480     4.2300    10.0590 C.3          1 FMN218   0.0000
    25 O4'          0.0530     4.8370     8.7710 O.3          1 FMN218   0.0000
    26 C5'          1.7780     4.5370    10.3900 C.3          1 FMN218   0.0000
    27 O5'          2.6640     3.8830     9.4380 O.3          1 FMN218   0.0000
    28 P            3.7530     2.8450     9.8700 P.3          1 FMN218   0.0000
    29 O1P          2.9960     1.6320    10.4380 O.co2        1 FMN218   0.0000
    30 O2P          4.7570     3.4150    10.8270 O.co2        1 FMN218  -1.0000
    31 O3P          4.3830     2.3150     8.5450 O.co2        1 FMN218  -1.0000
    32 H1          -5.2476    -2.3376     6.1205 H            1 FMN218   0.0000
    33 H2          -5.7311    -1.0582    12.7825 H            1 FMN218   0.0000
    34 H7M1        -3.8640     0.2248    15.6290 H            1 FMN218   0.0000
    35 H7M2        -5.4152     0.3518    15.1347 H            1 FMN218   0.0000
    36 H7M3        -4.7384    -1.1215    15.3297 H            1 FMN218   0.0000
    37 H8M1        -1.0479     1.2079    14.0979 H            1 FMN218   0.0000
    38 H8M2        -2.3477     1.5869    15.0109 H            1 FMN218   0.0000
    39 H8M3        -1.6961     0.0921    15.0986 H            1 FMN218   0.0000
    40 H9          -1.4690     0.8229    11.9222 H            1 FMN218   0.0000
    41 H1'1        -1.4181     0.7782     8.3398 H            1 FMN218   0.0000
    42 H1'2        -0.6608     0.4394     9.7463 H            1 FMN218   0.0000
    43 H2'         -2.0650     2.4934    10.4581 H            1 FMN218   0.0000
    44 H13         -2.8957     3.1365     8.5630 H            1 FMN218   0.0000
    45 H3'          0.5334     2.3871     9.2611 H            1 FMN218   0.0000
    46 H15          1.4638     2.0607    11.1771 H            1 FMN218   0.0000
    47 H4'         -0.2300     4.6683    10.7473 H            1 FMN218   0.0000
    48 H17         -0.7199     4.3635     8.3486 H            1 FMN218   0.0000
    49 H5'1         1.9821     4.2075    11.3118 H            1 FMN218   0.0000
    50 H5'2         1.9217     5.5258    10.3500 H            1 FMN218   0.0000
@<TRIPOS>BOND
     1    1    2       1
     2    1   18       2
     3    2    3       2
     4    2    4       1
     5    4    5       1
     6    5    6       2
     7    5    7       1
     8    7    8       2
     9    7   18       1
    10    8    9       1
    11    9   10      ar
    12    9   16      ar
    13   10   11      ar
    14   11   12       1
    15   11   13      ar
    16   13   14       1
    17   13   15      ar
    18   15   16      ar
    19   16   17       1
    20   17   18       1
    21   17   19       1
    22   19   20       1
    23   20   21       1
    24   20   22       1
    25   22   23       1
    26   22   24       1
    27   24   25       1
    28   24   26       1
    29   26   27       1
    30   27   28       1
    31   28   29      ar
    32   28   30      ar
    33   28   31      ar
    34    4   32       1
    35   10   33       1
    36   12   34       1
    37   12   35       1
    38   12   36       1
    39   14   37       1
    40   14   38       1
    41   14   39       1
    42   15   40       1
    43   19   41       1
    44   19   42       1
    45   20   43       1
    46   21   44       1
    47   22   45       1
    48   23   46       1
    49   24   47       1
    50   25   48       1
    51   26   49       1
    52   26   50       1
@<TRIPOS>SUBSTRUCTURE
     1 FMN218      1 GROUP             4 B     FMN     0 **** FMN B 218
