@<TRIPOS>MOLECULE
1rqj_RIS_2_ligand
   24    24     1     0     0
SMALL
NO_CHARGES


@<TRIPOS>ATOM
     1 O12         57.8200    74.3040    11.5720 O.co2        1 RIS901   0.0000
     2 P9          58.6230    73.6910    10.4330 P.3          1 RIS901   0.0000
     3 O11         58.3290    74.5110     8.9920 O.co2        1 RIS901  -1.0000
     4 O10         58.2060    72.0940    10.2630 O.co2        1 RIS901  -1.0000
     5 C8          60.3340    73.7980    10.7910 C.3          1 RIS901   0.0000
     6 O13         61.0510    73.1670     9.7100 O.3          1 RIS901   0.0000
     7 P14         60.8320    75.4670    10.9550 P.3          1 RIS901   0.0000
     8 O16         62.4730    75.6540    11.2350 O.co2        1 RIS901   0.0000
     9 O15         60.0140    76.1270    12.2590 O.co2        1 RIS901  -1.0000
    10 O17         60.4870    76.1750     9.6640 O.co2        1 RIS901  -1.0000
    11 C7          60.5170    73.0360    12.1100 C.3          1 RIS901   0.0000
    12 C2          61.9160    72.8430    12.6580 C.ar         1 RIS901   0.0000
    13 C1          62.0300    72.6930    14.0380 C.ar         1 RIS901   0.0000
    14 C6          63.2840    72.4960    14.6140 C.ar         1 RIS901   0.0000
    15 C5          64.3960    72.4540    13.7900 C.ar         1 RIS901   0.0000
    16 N4          64.2720    72.5970    12.4610 N.ar         1 RIS901   0.0000
    17 C3          63.0730    72.7870    11.8870 C.ar         1 RIS901   0.0000
    18 H1          60.4876    72.4413     9.3151 H            1 RIS901   0.0000
    19 H2          60.1252    72.1253    11.9792 H            1 RIS901   0.0000
    20 H3          59.9943    73.5268    12.8070 H            1 RIS901   0.0000
    21 H4          61.2137    72.7266    14.6146 H            1 RIS901   0.0000
    22 H5          63.3787    72.3871    15.6035 H            1 RIS901   0.0000
    23 H6          65.3022    72.3155    14.1896 H            1 RIS901   0.0000
    24 H7          63.0109    72.8894    10.8942 H            1 RIS901   0.0000
@<TRIPOS>BOND
     1    1    2      ar
     2    2    3      ar
     3    2    4      ar
     4    2    5       1
     5    5    6       1
     6    5    7       1
     7    5   11       1
     8    7    8      ar
     9    7    9      ar
    10    7   10      ar
    11   11   12       1
    12   12   13      ar
    13   12   17      ar
    14   13   14      ar
    15   14   15      ar
    16   15   16      ar
    17   16   17      ar
    18   17   24       1
    19   15   23       1
    20    6   18       1
    21   14   22       1
    22   13   21       1
    23   11   19       1
    24   11   20       1
@<TRIPOS>SUBSTRUCTURE
     1 RIS901      1 GROUP             4 A     RIS     0 **** RIS A 901
