@<TRIPOS>MOLECULE
3evj_NTO_1_ligand
  134   138     1     0     0
SMALL
NO_CHARGES


@<TRIPOS>ATOM
     1 O10         52.7040     2.4980     5.9790 O.3          1 NTO863   0.0000
     2 C12         53.2480     1.3090     6.5580 C.3          1 NTO863   0.0000
     3 C13         53.6040     1.5950     8.0190 C.3          1 NTO863   0.0000
     4 O14         54.2410     0.4470     8.6020 O.3          1 NTO863   0.0000
     5 C15         52.2970     1.8560     8.7760 C.3          1 NTO863   0.0000
     6 O16         52.5000     2.0590    10.1770 O.3          1 NTO863   0.0000
     7 S17         51.4290     1.8410    11.1030 S.o2         1 NTO863   0.0000
     8 O18         51.0200     0.3990    11.0450 O.co2        1 NTO863   0.0000
     9 O19         50.2580     2.7070    10.7460 O.co2        1 NTO863   0.0000
    10 O1A         51.8910     2.1750    12.4890 O.co2        1 NTO863  -1.0000
    11 C1B         54.4820     0.8650     5.7680 C.3          1 NTO863   0.0000
    12 O1C         54.1010     0.4440     4.4560 O.3          1 NTO863   0.0000
    13 C1E         55.1570    -0.3020     6.4910 C.3          1 NTO863   0.0000
    14 S1G         56.2950    -2.1540     5.1790 S.o2         1 NTO863   0.0000
    15 O1H         55.2210    -2.1540     4.1320 O.co2        1 NTO863   0.0000
    16 O1I         55.9510    -3.1420     6.2540 O.co2        1 NTO863   0.0000
    17 O1J         57.6070    -2.5400     4.5640 O.co2        1 NTO863  -1.0000
    18 C1K         55.4650     0.0990     7.9340 C.3          1 NTO863   0.0000
    19 O1L         56.3590     1.2220     7.9080 O.3          1 NTO863   0.0000
    20 C20         57.3600     1.1020     8.9300 C.3          1 NTO863   0.0000
    21 C21         58.0800     2.4370     9.0780 C.3          1 NTO863   0.0000
    22 O22         59.1170     2.3670    10.0750 O.3          1 NTO863   0.0000
    23 C23         57.0460     3.4800     9.4610 C.2          1 NTO863   0.0000
    24 O24         57.1750     4.0680    10.5660 O.co2        1 NTO863   0.0000
    25 O25         56.1000     3.6990     8.6650 O.co2        1 NTO863  -1.0000
    26 C26         58.3680     0.0020     8.6000 C.3          1 NTO863   0.0000
    27 O27         57.7150    -1.2710     8.6300 O.3          1 NTO863   0.0000
    28 C29         59.4820     0.0050     9.6490 C.3          1 NTO863   0.0000
    29 O2A         60.4810    -0.9540     9.3000 O.3          1 NTO863   0.0000
    30 C2C         60.1180     1.3940     9.7390 C.3          1 NTO863   0.0000
    31 O2D         61.1310     1.3460    10.7540 O.3          1 NTO863   0.0000
    32 C30         61.9580     2.5200    10.7420 C.3          1 NTO863   0.0000
    33 C31         63.4060     2.0940    10.5540 C.3          1 NTO863   0.0000
    34 O32         64.2990     3.2180    10.6080 O.3          1 NTO863   0.0000
    35 C33         63.5590     1.3820     9.2070 C.3          1 NTO863   0.0000
    36 O34         63.3020     2.2630     8.1110 O.3          1 NTO863   0.0000
    37 S35         63.2310     1.7500     6.7750 S.o2         1 NTO863   0.0000
    38 O36         61.8460     1.2400     6.5150 O.co2        1 NTO863   0.0000
    39 O37         64.2180     0.6320     6.6130 O.co2        1 NTO863   0.0000
    40 O38         63.5450     2.8420     5.7970 O.co2        1 NTO863  -1.0000
    41 C39         61.8140     3.2870    12.0600 C.3          1 NTO863   0.0000
    42 O3A         60.5020     3.8510    12.1500 O.3          1 NTO863   0.0000
    43 S3B         59.8920     3.5880    13.4180 S.o2         1 NTO863   0.0000
    44 O3C         60.7420     4.1310    14.5280 O.co2        1 NTO863   0.0000
    45 O3D         58.5460     4.2480    13.4560 O.co2        1 NTO863   0.0000
    46 O3E         59.7270     2.1090    13.6060 O.co2        1 NTO863  -1.0000
    47 C3F         62.8440     4.4170    12.1080 C.3          1 NTO863   0.0000
    48 S3H         63.7780     6.3720    13.4010 S.o2         1 NTO863   0.0000
    49 O3I         65.1040     5.9700    13.9750 O.co2        1 NTO863   0.0000
    50 O3J         63.1960     7.4820    14.2250 O.co2        1 NTO863   0.0000
    51 O3K         63.9550     6.8350    11.9860 O.co2        1 NTO863  -1.0000
    52 C3L         64.2530     3.8590    11.8930 C.3          1 NTO863   0.0000
    53 O3M         64.5470     2.9130    12.9330 O.3          1 NTO863   0.0000
    54 C40         65.8380     2.3020    12.7750 C.3          1 NTO863   0.0000
    55 C41         65.9000     1.0170    13.5860 C.3          1 NTO863   0.0000
    56 O42         66.0330     1.3320    14.9810 O.3          1 NTO863   0.0000
    57 C43         64.6040     0.2350    13.3630 C.2          1 NTO863   0.0000
    58 O44         64.6630    -0.8160    12.6910 O.co2        1 NTO863   0.0000
    59 O45         63.5520     0.6940    13.8610 O.co2        1 NTO863  -1.0000
    60 C46         66.9340     3.2490    13.2690 C.3          1 NTO863   0.0000
    61 O47         67.5580     3.8760    12.1460 O.3          1 NTO863   0.0000
    62 C49         67.9880     2.4660    14.0550 C.3          1 NTO863   0.0000
    63 O4A         69.0530     3.3360    14.4510 O.3          1 NTO863   0.0000
    64 S4B         70.3280     2.8100    14.0690 S.o2         1 NTO863   0.0000
    65 O4C         70.4820     1.4230    14.6200 O.co2        1 NTO863   0.0000
    66 O4D         70.4360     2.7700    12.5730 O.co2        1 NTO863   0.0000
    67 O4E         71.4070     3.6900    14.6280 O.co2        1 NTO863  -1.0000
    68 C4F         67.3510     1.8170    15.2870 C.3          1 NTO863   0.0000
    69 O4G         68.1880     0.7760    15.8160 O.3          1 NTO863   0.0000
    70 C50         67.7200     0.3740    17.1130 C.3          1 NTO863   0.0000
    71 C51         68.7030     0.7990    18.1930 C.3          1 NTO863   0.0000
    72 O52         68.1720     0.4610    19.4840 O.3          1 NTO863   0.0000
    73 C53         68.8690     2.3180    18.1800 C.3          1 NTO863   0.0000
    74 O54         67.7090     2.9360    18.7400 O.3          1 NTO863   0.0000
    75 S55         67.5730     4.3600    18.7260 S.o2         1 NTO863   0.0000
    76 O56         66.9350     4.7670    17.4320 O.co2        1 NTO863   0.0000
    77 O57         68.9260     4.9970    18.8500 O.co2        1 NTO863   0.0000
    78 O58         66.7140     4.8030    19.8730 O.co2        1 NTO863  -1.0000
    79 C59         67.6180    -1.1510    17.1940 C.3          1 NTO863   0.0000
    80 O5A         66.6960    -1.6240    16.2100 O.3          1 NTO863   0.0000
    81 C5F         67.1210    -1.5410    18.5880 C.3          1 NTO863   0.0000
    82 S5H         65.7380    -3.4710    19.5480 S.o2         1 NTO863   0.0000
    83 O5I         64.6410    -3.8180    18.5860 O.co2        1 NTO863   0.0000
    84 O5J         65.2750    -2.3630    20.4470 O.co2        1 NTO863   0.0000
    85 O5K         66.0670    -4.6710    20.3850 O.co2        1 NTO863  -1.0000
    86 C5L         68.0460    -0.9590    19.6580 C.3          1 NTO863   0.0000
    87 O5M         69.3410    -1.5730    19.5950 O.3          1 NTO863   0.0000
    88 C5N         69.4750    -2.4900    20.6840 C.3          1 NTO863   0.0000
    89 N5G         67.0600    -3.0050    18.7120 N.3          1 NTO863   0.0000
    90 N3G         62.7710     5.0920    13.4110 N.3          1 NTO863   0.0000
    91 N1F         56.4110    -0.6550     5.8110 N.3          1 NTO863   0.0000
    92 H1          52.4668     2.3249     5.0231 H            1 NTO863   0.0000
    93 H2          52.5598     0.5842     6.5247 H            1 NTO863   0.0000
    94 H3          54.2045     2.3923     8.0795 H            1 NTO863   0.0000
    95 H4          51.6928     1.0690     8.6513 H            1 NTO863   0.0000
    96 H5          51.8640     2.6725     8.3941 H            1 NTO863   0.0000
    97 H1B         55.1241     1.6285     5.6984 H            1 NTO863   0.0000
    98 H1C         54.3636    -0.5117     4.3232 H            1 NTO863   0.0000
    99 H1E         54.5445    -1.0925     6.4895 H            1 NTO863   0.0000
   100 H1K         55.9006    -0.6656     8.4089 H            1 NTO863   0.0000
   101 H10         56.9118     0.8796     9.7958 H            1 NTO863   0.0000
   102 H11         58.4873     2.6877     8.1998 H            1 NTO863   0.0000
   103 H12         58.7573     0.1611     7.6927 H            1 NTO863   0.0000
   104 H13         58.3706    -1.9756     8.9017 H            1 NTO863   0.0000
   105 H14         59.0942    -0.2356    10.5388 H            1 NTO863   0.0000
   106 H2A         60.8679    -0.7225     8.4074 H            1 NTO863   0.0000
   107 H2C         60.5339     1.6301     8.8608 H            1 NTO863   0.0000
   108 H17         61.6847     3.1107     9.9828 H            1 NTO863   0.0000
   109 H18         63.6498     1.4554    11.2839 H            1 NTO863   0.0000
   110 H19         62.9131     0.6196     9.1683 H            1 NTO863   0.0000
   111 H20         64.4926     1.0322     9.1296 H            1 NTO863   0.0000
   112 H21         61.9641     2.6643    12.8279 H            1 NTO863   0.0000
   113 H3F         62.6396     5.0773    11.3853 H            1 NTO863   0.0000
   114 H3L         64.9178     4.6055    11.9201 H            1 NTO863   0.0000
   115 H24         65.9904     2.0928    11.8091 H            1 NTO863   0.0000
   116 H25         66.6808     0.4677    13.2884 H            1 NTO863   0.0000
   117 H26         66.5296     3.9480    13.8588 H            1 NTO863   0.0000
   118 H27         68.5322     3.6503    12.1370 H            1 NTO863   0.0000
   119 H28         68.3601     1.7471    13.4678 H            1 NTO863   0.0000
   120 H4F         67.2605     2.5221    15.9903 H            1 NTO863   0.0000
   121 H30         66.8248     0.7826    17.2910 H            1 NTO863   0.0000
   122 H31         69.5866     0.3521    18.0533 H            1 NTO863   0.0000
   123 H32         68.9898     2.6308    17.2379 H            1 NTO863   0.0000
   124 H33         69.6723     2.5689    18.7201 H            1 NTO863   0.0000
   125 H34         68.5178    -1.5565    17.0330 H            1 NTO863   0.0000
   126 H5A         66.3304    -0.8483    15.6956 H            1 NTO863   0.0000
   127 H5F         66.2024    -1.1680    18.7186 H            1 NTO863   0.0000
   128 H5L         67.6489    -1.1384    20.5581 H            1 NTO863   0.0000
   129 H5N1        70.3759    -2.9223    20.6468 H            1 NTO863   0.0000
   130 H5N2        69.3772    -1.9973    21.5487 H            1 NTO863   0.0000
   131 H5N3        68.7656    -3.1917    20.6181 H            1 NTO863   0.0000
   132 H5G         67.0271    -3.4088    17.7978 H            1 NTO863   0.0000
   133 H3G         61.8349     5.4029    13.5757 H            1 NTO863   0.0000
   134 H1F         57.1637    -0.6296     6.4688 H            1 NTO863   0.0000
@<TRIPOS>BOND
     1    1    2       1
     2    2    3       1
     3    2   11       1
     4    3    4       1
     5    3    5       1
     6    4   18       1
     7    5    6       1
     8    6    7       1
     9    7    8      ar
    10    7    9      ar
    11    7   10      ar
    12   11   12       1
    13   11   13       1
    14   13   18       1
    15   13   91       1
    16   14   15      ar
    17   14   16      ar
    18   14   17      ar
    19   14   91       1
    20   18   19       1
    21   19   20       1
    22   20   21       1
    23   20   26       1
    24   21   22       1
    25   21   23       1
    26   22   30       1
    27   23   24      ar
    28   23   25      ar
    29   26   27       1
    30   26   28       1
    31   28   29       1
    32   28   30       1
    33   30   31       1
    34   31   32       1
    35   32   33       1
    36   32   41       1
    37   33   34       1
    38   33   35       1
    39   34   52       1
    40   35   36       1
    41   36   37       1
    42   37   38      ar
    43   37   39      ar
    44   37   40      ar
    45   41   42       1
    46   41   47       1
    47   42   43       1
    48   43   44      ar
    49   43   45      ar
    50   43   46      ar
    51   47   52       1
    52   47   90       1
    53   48   49      ar
    54   48   50      ar
    55   48   51      ar
    56   48   90       1
    57   52   53       1
    58   53   54       1
    59   54   55       1
    60   54   60       1
    61   55   56       1
    62   55   57       1
    63   56   68       1
    64   57   58      ar
    65   57   59      ar
    66   60   61       1
    67   60   62       1
    68   62   63       1
    69   62   68       1
    70   63   64       1
    71   64   65      ar
    72   64   66      ar
    73   64   67      ar
    74   68   69       1
    75   69   70       1
    76   70   71       1
    77   70   79       1
    78   71   72       1
    79   71   73       1
    80   72   86       1
    81   73   74       1
    82   74   75       1
    83   75   76      ar
    84   75   77      ar
    85   75   78      ar
    86   79   80       1
    87   79   81       1
    88   81   86       1
    89   81   89       1
    90   82   83      ar
    91   82   84      ar
    92   82   85      ar
    93   82   89       1
    94   86   87       1
    95   87   88       1
    96    1   92       1
    97    2   93       1
    98    3   94       1
    99    5   95       1
   100    5   96       1
   101   91  134       1
   102   11   97       1
   103   12   98       1
   104   13   99       1
   105   90  133       1
   106   18  100       1
   107   20  101       1
   108   21  102       1
   109   89  132       1
   110   26  103       1
   111   27  104       1
   112   28  105       1
   113   29  106       1
   114   30  107       1
   115   32  108       1
   116   33  109       1
   117   35  110       1
   118   35  111       1
   119   88  131       1
   120   41  112       1
   121   88  130       1
   122   47  113       1
   123   88  129       1
   124   52  114       1
   125   54  115       1
   126   55  116       1
   127   86  128       1
   128   60  117       1
   129   61  118       1
   130   62  119       1
   131   80  126       1
   132   68  120       1
   133   70  121       1
   134   71  122       1
   135   73  123       1
   136   73  124       1
   137   81  127       1
   138   79  125       1
@<TRIPOS>SUBSTRUCTURE
     1 NTO863      1 GROUP             4 I     NTO     0 **** NTO I 863
