@<TRIPOS>MOLECULE
4psn_IMD_4_ligand
    9     9     1     0     0
SMALL
NO_CHARGES


@<TRIPOS>ATOM
     1 N1          -3.6100   -14.4050     5.5830 N.2          1 IMD301   0.0000
     2 C2          -4.6850   -13.5900     5.5210 C.2          1 IMD301   0.0000
     3 N3          -5.4510   -13.7920     6.6160 N.pl3        1 IMD301   0.0000
     4 C4          -4.8570   -14.7400     7.3750 C.2          1 IMD301   0.0000
     5 C5          -3.6920   -15.1260     6.7200 C.2          1 IMD301   0.0000
     6 H1          -4.8821   -12.9425     4.7848 H            1 IMD301   0.0000
     7 H2          -5.1930   -15.0977     8.2463 H            1 IMD301   0.0000
     8 H3          -3.0358   -15.8120     7.0344 H            1 IMD301   0.0000
     9 H4          -6.3079   -13.3221     6.8279 H            1 IMD301   0.0000
@<TRIPOS>BOND
     1    1    2       2
     2    1    5       1
     3    2    3       1
     4    3    4       1
     5    4    5       2
     6    5    8       1
     7    2    6       1
     8    4    7       1
     9    3    9       1
@<TRIPOS>SUBSTRUCTURE
     1 IMD301      1 GROUP             4 C     IMD     0 **** IMD C 301
