@<TRIPOS>MOLECULE
4qpp_SAH_5_ligand
   46    48     1     0     0
SMALL
NO_CHARGES


@<TRIPOS>ATOM
     1 N          -17.2810    19.1960    13.9040 N.4          1 SAH1000   1.0000
     2 CA         -16.7490    17.8320    13.8720 C.3          1 SAH1000   0.0000
     3 CB         -17.7190    16.8950    13.1410 C.3          1 SAH1000   0.0000
     4 CG         -18.1340    17.3780    11.7530 C.3          1 SAH1000   0.0000
     5 SD         -19.0510    16.1040    10.9280 S.3          1 SAH1000   0.0000
     6 C          -15.3870    17.7850    13.2290 C.2          1 SAH1000   0.0000
     7 O          -14.9320    18.7570    12.6270 O.co2        1 SAH1000   0.0000
     8 OXT        -14.6950    16.7670    13.2810 O.co2        1 SAH1000  -1.0000
     9 C5'        -20.6470    16.8270    10.7650 C.3          1 SAH1000   0.0000
    10 C4'        -21.4360    16.7130    12.0650 C.3          1 SAH1000   0.0000
    11 O4'        -22.5370    17.6190    11.9970 O.3          1 SAH1000   0.0000
    12 C3'        -22.0390    15.3300    12.3270 C.3          1 SAH1000   0.0000
    13 O3'        -21.7330    14.8670    13.6480 O.3          1 SAH1000   0.0000
    14 C2'        -23.5380    15.5080    12.1850 C.3          1 SAH1000   0.0000
    15 O2'        -24.2570    14.6860    13.1040 O.3          1 SAH1000   0.0000
    16 C1'        -23.7130    16.9780    12.4970 C.3          1 SAH1000   0.0000
    17 N9         -24.8960    17.6450    11.9090 N.pl3        1 SAH1000   0.0000
    18 C8         -25.3670    17.5380    10.6520 C.2          1 SAH1000   0.0000
    19 N7         -26.4540    18.3360    10.4860 N.2          1 SAH1000   0.0000
    20 C5         -26.6810    18.9680    11.6540 C.ar         1 SAH1000   0.0000
    21 C6         -27.6620    19.9430    12.1800 C.ar         1 SAH1000   0.0000
    22 N6         -28.6520    20.4210    11.3980 N.pl3        1 SAH1000   0.0000
    23 N1         -27.5330    20.3460    13.4630 N.ar         1 SAH1000   0.0000
    24 C2         -26.5570    19.8900    14.2700 C.ar         1 SAH1000   0.0000
    25 N3         -25.6350    19.0000    13.8630 N.ar         1 SAH1000   0.0000
    26 C4         -25.6450    18.5150    12.5890 C.ar         1 SAH1000   0.0000
    27 H1         -16.9569    19.6609    14.7279 H            1 SAH1000   0.0000
    28 H2         -16.9689    19.6946    13.0953 H            1 SAH1000   0.0000
    29 HA         -16.6587    17.5115    14.8149 H            1 SAH1000   0.0000
    30 HB1        -18.5434    16.8004    13.6991 H            1 SAH1000   0.0000
    31 HB2        -17.2785    16.0026    13.0432 H            1 SAH1000   0.0000
    32 HG1        -17.3174    17.5986    11.2196 H            1 SAH1000   0.0000
    33 HG2        -18.7047    18.1943    11.8417 H            1 SAH1000   0.0000
    34 H5'1       -21.1462    16.3563    10.0375 H            1 SAH1000   0.0000
    35 H5'2       -20.5453    17.7932    10.5282 H            1 SAH1000   0.0000
    36 H4'        -20.8467    16.9668    12.8320 H            1 SAH1000   0.0000
    37 H3'        -21.7053    14.6759    11.6482 H            1 SAH1000   0.0000
    38 H12        -20.8744    14.3546    13.6311 H            1 SAH1000   0.0000
    39 H2'        -23.8245    15.3145    11.2467 H            1 SAH1000   0.0000
    40 H14        -23.9988    14.9272    14.0395 H            1 SAH1000   0.0000
    41 H1'        -23.7420    17.0928    13.4900 H            1 SAH1000   0.0000
    42 H16        -24.9729    16.9544     9.9420 H            1 SAH1000   0.0000
    43 H17        -29.3075    21.0795    11.7677 H            1 SAH1000   0.0000
    44 H18        -28.7303    20.1168    10.4486 H            1 SAH1000   0.0000
    45 H19        -26.5159    20.2269    15.2106 H            1 SAH1000   0.0000
    46 H20        -18.2805    19.1639    13.9106 H            1 SAH1000   0.0000
@<TRIPOS>BOND
     1    1    2       1
     2    2    3       1
     3    2    6       1
     4    3    4       1
     5    4    5       1
     6    5    9       1
     7    6    7      ar
     8    6    8      ar
     9    9   10       1
    10   10   11       1
    11   10   12       1
    12   11   16       1
    13   12   13       1
    14   12   14       1
    15   14   15       1
    16   14   16       1
    17   16   17       1
    18   17   18       1
    19   17   26       1
    20   18   19       2
    21   19   20       1
    22   20   21      ar
    23   20   26      ar
    24   21   22       1
    25   21   23      ar
    26   23   24      ar
    27   24   25      ar
    28   25   26      ar
    29    1   27       1
    30    1   28       1
    31    2   29       1
    32    3   30       1
    33    3   31       1
    34    4   32       1
    35    4   33       1
    36    1   46       1
    37    9   34       1
    38    9   35       1
    39   10   36       1
    40   12   37       1
    41   13   38       1
    42   14   39       1
    43   15   40       1
    44   16   41       1
    45   18   42       1
    46   22   43       1
    47   22   44       1
    48   24   45       1
@<TRIPOS>SUBSTRUCTURE
     1 SAH1000     1 GROUP             4 B     SAH     0 **** SAH B1000
