@<TRIPOS>MOLECULE
1rj9_GCP_1_ligand
   47    49     1     0     0
SMALL
NO_CHARGES


@<TRIPOS>ATOM
     1 PG          32.1870     1.7580    32.1190 P.3          1 GCP500   0.0000
     2 O1G         32.2960     1.7700    33.6250 O.co2        1 GCP500   0.0000
     3 O2G         30.8760     0.9750    31.8980 O.co2        1 GCP500  -1.0000
     4 O3G         33.4170     0.8640    31.5590 O.co2        1 GCP500  -1.0000
     5 C3B         32.1880     3.2700    31.4600 C.3          1 GCP500   0.0000
     6 PB          32.0940     3.5680    29.8650 P.3          1 GCP500   0.0000
     7 O1B         30.6970     3.3320    29.6610 O.co2        1 GCP500   0.0000
     8 O2B         33.1780     3.0270    28.9490 O.co2        1 GCP500  -1.0000
     9 O3A         32.1250     5.1250    29.9590 O.3          1 GCP500   0.0000
    10 PA          30.9750     6.2620    30.0550 P.3          1 GCP500   0.0000
    11 O1A         30.1560     6.4990    28.8190 O.co2        1 GCP500   0.0000
    12 O2A         30.2340     6.1860    31.3370 O.co2        1 GCP500  -1.0000
    13 O5'         31.8420     7.4560    30.5610 O.3          1 GCP500   0.0000
    14 C5'         32.9960     8.0570    30.0990 C.3          1 GCP500   0.0000
    15 C4'         33.2150     9.2930    30.9280 C.3          1 GCP500   0.0000
    16 O4'         33.7380     9.9580    29.7790 O.3          1 GCP500   0.0000
    17 C3'         31.9270    10.0680    31.2470 C.3          1 GCP500   0.0000
    18 O3'         32.1840    11.1150    32.1830 O.3          1 GCP500   0.0000
    19 C2'         31.5900    10.8360    29.9880 C.3          1 GCP500   0.0000
    20 O2'         30.7530    11.9460    30.0770 O.3          1 GCP500   0.0000
    21 C1'         32.9530    11.0460    29.3980 C.3          1 GCP500   0.0000
    22 N9          33.0350    11.0210    27.9600 N.pl3        1 GCP500   0.0000
    23 C8          32.5710    10.0640    27.0660 C.2          1 GCP500   0.0000
    24 N7          32.8210    10.3670    25.8090 N.2          1 GCP500   1.0000
    25 C5          33.4840    11.5960    25.8940 C.2          1 GCP500   0.0000
    26 C6          34.0090    12.4520    24.8820 C.2          1 GCP500   0.0000
    27 O6          33.9770    12.2720    23.6730 O.2          1 GCP500   0.0000
    28 N1          34.6100    13.6160    25.3920 N.pl3        1 GCP500   0.0000
    29 C2          34.6960    13.9240    26.7460 C.2          1 GCP500   0.0000
    30 N2          35.2990    15.0720    27.0790 N.pl3        1 GCP500   0.0000
    31 N3          34.2030    13.1260    27.7070 N.2          1 GCP500   0.0000
    32 C4          33.6190    11.9970    27.2150 C.2          1 GCP500   0.0000
    33 H3B1        33.0385     3.6981    31.7658 H            1 GCP500   0.0000
    34 H3B2        31.4095     3.7448    31.8705 H            1 GCP500   0.0000
    35 H5'1        32.8917     8.3044    29.1357 H            1 GCP500   0.0000
    36 H5'2        33.7715     7.4339    30.2010 H            1 GCP500   0.0000
    37 H4'         33.8532     9.1898    31.6910 H            1 GCP500   0.0000
    38 H3'         31.1824     9.4680    31.5396 H            1 GCP500   0.0000
    39 H7          32.5431    10.7238    33.0304 H            1 GCP500   0.0000
    40 H2'         31.1252    10.1875    29.3852 H            1 GCP500   0.0000
    41 H9          31.3027    12.7661    30.2358 H            1 GCP500   0.0000
    42 H1'         33.3505    11.8940    29.7486 H            1 GCP500   0.0000
    43 H11         32.0959     9.2305    27.3481 H            1 GCP500   0.0000
    44 H12         35.0011    14.2647    24.7392 H            1 GCP500   0.0000
    45 H13         35.3825    15.3322    28.0409 H            1 GCP500   0.0000
    46 H14         35.6659    15.6693    26.3658 H            1 GCP500   0.0000
    47 H15         32.5915     9.8431    24.9887 H            1 GCP500   0.0000
@<TRIPOS>BOND
     1    1    2      ar
     2    1    3      ar
     3    1    4      ar
     4    1    5       1
     5    5    6       1
     6    6    7      ar
     7    6    8      ar
     8    6    9       1
     9    9   10       1
    10   10   11      ar
    11   10   12      ar
    12   10   13       1
    13   13   14       1
    14   14   15       1
    15   15   16       1
    16   15   17       1
    17   16   21       1
    18   17   18       1
    19   17   19       1
    20   19   20       1
    21   19   21       1
    22   21   22       1
    23   22   23       1
    24   22   32       1
    25   23   24       2
    26   24   25       1
    27   25   26       1
    28   25   32       2
    29   26   27       2
    30   26   28       1
    31   28   29       1
    32   29   30       1
    33   29   31       2
    34   31   32       1
    35   30   46       1
    36   30   45       1
    37    5   33       1
    38    5   34       1
    39   28   44       1
    40   23   43       1
    41   14   35       1
    42   14   36       1
    43   15   37       1
    44   17   38       1
    45   18   39       1
    46   19   40       1
    47   20   41       1
    48   21   42       1
    49   24   47       1
@<TRIPOS>SUBSTRUCTURE
     1 GCP500      1 GROUP             4 A     GCP     0 **** GCP A 500
