@<TRIPOS>MOLECULE
2zsc_BTN_1_ligand
   31    32     1     0     0
SMALL
NO_CHARGES


@<TRIPOS>ATOM
     1 C11         14.1560    22.4050     2.9620 C.2          1 BTN301   0.0000
     2 O11         13.9850    22.2160     1.7370 O.co2        1 BTN301   0.0000
     3 O12         14.7600    21.5300     3.6280 O.co2        1 BTN301  -1.0000
     4 C10         13.6220    23.6740     3.6020 C.3          1 BTN301   0.0000
     5 C9          13.1230    23.4580     5.0360 C.3          1 BTN301   0.0000
     6 C8          11.8900    22.5630     5.0560 C.3          1 BTN301   0.0000
     7 C7          11.4040    22.3260     6.4820 C.3          1 BTN301   0.0000
     8 C2          10.1210    21.4730     6.4680 C.3          1 BTN301   0.0000
     9 S1           8.7130    22.2680     5.9470 S.3          1 BTN301   0.0000
    10 C6           7.7570    20.8330     6.4920 C.3          1 BTN301   0.0000
    11 C5           8.3220    20.4520     7.8460 C.3          1 BTN301   0.0000
    12 N1           7.7620    21.2580     8.9080 N.am         1 BTN301   0.0000
    13 C3           8.6760    22.0520     9.4420 C.2          1 BTN301   0.0000
    14 O3           8.4160    22.8810    10.5260 O.2          1 BTN301   0.0000
    15 N2           9.8640    21.8480     8.9240 N.am         1 BTN301   0.0000
    16 C4           9.7830    20.8770     7.8430 C.3          1 BTN301   0.0000
    17 H1          12.8623    24.0148     3.0482 H            1 BTN301   0.0000
    18 H2          14.3542    24.3549     3.6186 H            1 BTN301   0.0000
    19 H3          12.8909    24.3436     5.4384 H            1 BTN301   0.0000
    20 H4          13.8483    23.0276     5.5733 H            1 BTN301   0.0000
    21 H5          12.1186    21.6834     4.6388 H            1 BTN301   0.0000
    22 H6          11.1602    23.0012     4.5312 H            1 BTN301   0.0000
    23 H7          11.2117    23.2058     6.9166 H            1 BTN301   0.0000
    24 H8          12.1141    21.8473     6.9984 H            1 BTN301   0.0000
    25 H9          10.2791    20.7084     5.8433 H            1 BTN301   0.0000
    26 H10          7.8629    20.0777     5.8452 H            1 BTN301   0.0000
    27 H11          6.7887    21.0696     6.5725 H            1 BTN301   0.0000
    28 H12          8.2202    19.4742     8.0289 H            1 BTN301   0.0000
    29 H13          6.8067    21.2202     9.2012 H            1 BTN301   0.0000
    30 H14         10.3729    20.0929     8.0359 H            1 BTN301   0.0000
    31 H15         10.7048    22.2956     9.2284 H            1 BTN301   0.0000
@<TRIPOS>BOND
     1    1    2      ar
     2    1    3      ar
     3    1    4       1
     4    4    5       1
     5    5    6       1
     6    6    7       1
     7    7    8       1
     8    8    9       1
     9    8   16       1
    10    9   10       1
    11   10   11       1
    12   11   12       1
    13   11   16       1
    14   12   13      am
    15   13   14       2
    16   13   15      am
    17   15   16       1
    18   16   30       1
    19    4   17       1
    20    4   18       1
    21    5   19       1
    22    5   20       1
    23    6   21       1
    24    6   22       1
    25    7   23       1
    26    7   24       1
    27    8   25       1
    28   10   26       1
    29   10   27       1
    30   11   28       1
    31   12   29       1
    32   15   31       1
@<TRIPOS>SUBSTRUCTURE
     1 BTN301      1 GROUP             4 A     BTN     0 **** BTN A 301
