@<TRIPOS>MOLECULE
./coach420/1fth/ligand.pdb
 27 29 0 0 0
SMALL
GASTEIGER

@<TRIPOS>ATOM
      1  P1        11.7930    8.8900   27.1530 P.3   5001  A3P5001     0.5327
      2  O1P       10.7040    7.8130   27.4280 O.2   5001  A3P5001    -0.2224
      3  O2P       13.1320    8.4560   27.8110 O.3   5001  A3P5001    -0.1145
      4  O3P       11.3350   10.2700   27.7270 O.3   5001  A3P5001    -0.1145
      5  P2        10.5900   10.3010   20.0380 P.3   5001  A3P5001     0.5327
      6  O4P       10.5020   11.8560   20.0910 O.3   5001  A3P5001    -0.1145
      7  O5P        9.2060    9.7050   19.7060 O.3   5001  A3P5001    -0.1145
      8  O6P       11.6250    9.8570   18.9580 O.2   5001  A3P5001    -0.2224
      9  O5'       11.0970    9.7010   21.4240 O.3   5001  A3P5001    -0.2675
     10  C5'       11.4370   10.5350   22.6030 C.3   5001  A3P5001     0.1858
     11  C4'       12.6860    9.9570   23.3350 C.3   5001  A3P5001     0.1776
     12  O4'       13.8480   10.6860   22.9200 O.3   5001  A3P5001    -0.3307
     13  C3'       12.6530   10.0990   24.8700 C.3   5001  A3P5001     0.1904
     14  O3'       11.9760    8.9710   25.5700 O.3   5001  A3P5001    -0.2674
     15  C2'       14.1410   10.1100   25.2240 C.3   5001  A3P5001     0.2310
     16  O2'       14.6310    8.7840   25.4910 O.3   5001  A3P5001    -0.2156
     17  C1'       14.8300   10.7030   23.9790 C.3   5001  A3P5001     0.2408
     18  N9        15.5830   11.9600   24.1570 N.ar  5001  A3P5001    -0.2693
     19  C8        15.0310   13.1030   24.6830 C.ar  5001  A3P5001     0.1816
     20  N7        15.9780   14.0900   24.7230 N.ar  5001  A3P5001    -0.2193
     21  C5        17.1340   13.5560   24.2150 C.ar  5001  A3P5001     0.1518
     22  C6        18.4080   14.0060   23.9910 C.ar  5001  A3P5001     0.1919
     23  N6        18.7560   15.2780   24.3010 N.pl3 5001  A3P5001    -0.1054
     24  N1        19.3540   13.1960   23.4560 N.ar  5001  A3P5001    -0.2040
     25  C2        19.0880   11.9100   23.1200 C.ar  5001  A3P5001     0.2016
     26  N3        17.8680   11.3780   23.3040 N.ar  5001  A3P5001    -0.2048
     27  C4        16.9030   12.2030   23.8500 C.ar  5001  A3P5001     0.1692
@<TRIPOS>BOND
     1     1    14    1
     2     1     2    2
     3     1     4    1
     4     1     3    1
     5     5     8    2
     6     5     7    1
     7     5     6    1
     8     5     9    1
     9     9    10    1
    10    10    11    1
    11    11    12    1
    12    11    13    1
    13    12    17    1
    14    13    15    1
    15    13    14    1
    16    15    17    1
    17    15    16    1
    18    17    18    1
    19    18    27   ar
    20    18    19   ar
    21    19    20   ar
    22    20    21   ar
    23    21    27   ar
    24    21    22   ar
    25    22    24   ar
    26    22    23    1
    27    24    25   ar
    28    25    26   ar
    29    26    27   ar
