@<TRIPOS>MOLECULE
./coach420/1goq/ligand.pdb
 56 56 0 0 0
SMALL
GASTEIGER

@<TRIPOS>ATOM
      1  C1B       -0.3870    9.2610    6.9990 C.3   401  XYP401      0.2695
      2  C2B        0.8750    9.3030    7.8350 C.3   401  XYP401      0.2406
      3  C3B        1.4720   10.6990    7.8000 C.3   401  XYP401      0.2198
      4  C4B        1.6350   11.1700    6.3680 C.3   401  XYP401      0.2143
      5  C5B        0.3290   11.0130    5.6090 C.3   401  XYP401      0.1803
      6  O2B        0.5060    8.9680    9.1750 O.3   401  XYP401     -0.2149
      7  O3B        2.7560   10.6840    8.4360 O.3   401  XYP401     -0.2174
      8  O4B        2.0190   12.5470    6.3700 O.3   401  XYP401     -0.2176
      9  O5B       -0.1280    9.6470    5.6700 O.3   401  XYP401     -0.3257
     10  O4A       -5.8280    6.1280    5.5910 O.3   402  XYP402     -0.1869
     11  C1B       -4.6300    6.3310    6.2900 C.3   402  XYP402      0.3023
     12  C2B       -3.5010    5.7870    5.4390 C.3   402  XYP402      0.2433
     13  C3B       -2.1690    6.1160    6.0660 C.3   402  XYP402      0.2168
     14  C4B       -2.0780    7.6090    6.3080 C.3   402  XYP402      0.1803
     15  C5B       -3.2410    8.0120    7.1950 C.3   402  XYP402      0.1771
     16  O2B       -3.6580    4.3710    5.3920 O.3   402  XYP402     -0.2148
     17  O3B       -1.1210    5.7020    5.1840 O.3   402  XYP402     -0.2175
     18  O4B       -0.8500    7.9100    6.9620 O.3   402  XYP402     -0.3257
     19  O5B       -4.4860    7.7140    6.5290 O.3   402  XYP402     -0.3239
     20  O4A       -9.9040   10.0690    7.6980 O.3   403  XYP403     -0.1869
     21  C1B       -9.2050    9.4430    6.6630 C.3   403  XYP403      0.3024
     22  C2B       -8.5740   10.5060    5.7910 C.3   403  XYP403      0.2434
     23  C3B       -7.7750    9.8440    4.6930 C.3   403  XYP403      0.2199
     24  C4B       -6.8140    8.8310    5.2670 C.3   403  XYP403      0.2143
     25  C5B       -7.5350    7.8800    6.2100 C.3   403  XYP403      0.1804
     26  O2B       -9.6370   11.2660    5.2110 O.3   403  XYP403     -0.2148
     27  O3B       -7.0330   10.8410    3.9840 O.3   403  XYP403     -0.2174
     28  O4B       -6.2230    8.0930    4.1940 O.3   403  XYP403     -0.2176
     29  O5B       -8.2280    8.6190    7.2320 O.3   403  XYP403     -0.3237
     30  C1B       10.1470    8.0300    5.3940 C.3   404  XYP404      0.1777
     31  C2B       11.2170    8.2830    4.3410 C.3   404  XYP404      0.2141
     32  C3B       12.5780    8.0510    4.9570 C.3   404  XYP404      0.2172
     33  C4B       12.7230    8.9700    6.1470 C.3   404  XYP404      0.2141
     34  C5B       11.6270    8.6460    7.1370 C.3   404  XYP404      0.1777
     35  O2B       11.0080    7.3670    3.2600 O.3   404  XYP404     -0.2176
     36  O3B       13.5950    8.3390    3.9940 O.3   404  XYP404     -0.2175
     37  O4B       14.0030    8.7850    6.7550 O.3   404  XYP404     -0.2176
     38  O5B       10.3310    8.8510    6.5280 O.3   404  XYP404     -0.3482
     39  C2B       -8.3050  -18.3220   15.1190 C.3   405  XYP405      0.2175
     40  C3B       -7.6490  -18.5580   13.7750 C.3   405  XYP405      0.2175
     41  C4B       -6.7940  -17.3750   13.3450 C.3   405  XYP405      0.2175
     42  C5B       -5.8910  -16.9260   14.4690 C.3   405  XYP405      0.2175
     43  O2B       -8.8170  -19.5670   15.6120 O.3   405  XYP405     -0.2175
     44  O3B       -8.6760  -18.7650   12.8010 O.3   405  XYP405     -0.2175
     45  O4B       -5.9810  -17.7640   12.2330 O.3   405  XYP405     -0.2175
     46  O5B       -6.6600  -16.6500   15.6510 O.3   405  XYP405     -0.2175
     47  O4A       -6.4680  -17.1760   22.5600 O.3   406  XYP406     -0.1869
     48  C1B       -7.1000  -17.2870   21.3140 C.3   406  XYP406      0.3024
     49  C2B       -7.0820  -15.9380   20.6200 C.3   406  XYP406      0.2434
     50  C3B       -7.7770  -16.0750   19.2790 C.3   406  XYP406      0.2199
     51  C4B       -7.1590  -17.2030   18.4720 C.3   406  XYP406      0.2143
     52  C5B       -7.0890  -18.4780   19.2960 C.3   406  XYP406      0.1804
     53  O2B       -7.8040  -15.0160   21.4450 O.3   406  XYP406     -0.2148
     54  O3B       -7.6490  -14.8500   18.5540 O.3   406  XYP406     -0.2174
     55  O4B       -7.9590  -17.4460   17.3210 O.3   406  XYP406     -0.2176
     56  O5B       -6.4110  -18.2410   20.5500 O.3   406  XYP406     -0.3237
@<TRIPOS>BOND
     1     1     9    1
     2     1    18    1
     3     1     2    1
     4     2     3    1
     5     2     6    1
     6     3     4    1
     7     3     7    1
     8     4     5    1
     9     4     8    1
    10     5     9    1
    11    10    11    1
    12    11    12    1
    13    11    19    1
    14    12    16    1
    15    12    13    1
    16    13    17    1
    17    13    14    1
    18    14    18    1
    19    14    15    1
    20    15    19    1
    21    20    21    1
    22    21    22    1
    23    21    29    1
    24    22    23    1
    25    22    26    1
    26    23    27    1
    27    23    24    1
    28    24    28    1
    29    24    25    1
    30    25    29    1
    31    30    31    1
    32    30    38    1
    33    31    35    1
    34    31    32    1
    35    32    36    1
    36    32    33    1
    37    33    37    1
    38    33    34    1
    39    34    38    1
    40    39    40    1
    41    39    43    1
    42    40    44    1
    43    40    41    1
    44    41    45    1
    45    41    42    1
    46    42    46    1
    47    47    48    1
    48    48    56    1
    49    48    49    1
    50    49    50    1
    51    49    53    1
    52    50    51    1
    53    50    54    1
    54    51    55    1
    55    51    52    1
    56    52    56    1
