@<TRIPOS>MOLECULE
4dt8_ADN_2_ligand
   32    34     1     0     0
SMALL
NO_CHARGES


@<TRIPOS>ATOM
     1 O5'         12.1230   -40.2850     8.1150 O.3          1 ADN401   0.0000
     2 C5'         13.5290   -40.6470     7.7830 C.3          1 ADN401   0.0000
     3 C4'         13.8140   -41.9560     6.8740 C.3          1 ADN401   0.0000
     4 O4'         14.1650   -43.3710     7.3910 O.3          1 ADN401   0.0000
     5 C3'         12.6600   -42.2000     5.8370 C.3          1 ADN401   0.0000
     6 O3'         12.7700   -41.2840     4.7100 O.3          1 ADN401   0.0000
     7 C2'         12.6680   -43.7920     5.5110 C.3          1 ADN401   0.0000
     8 O2'         13.6170   -44.3160     4.5330 O.3          1 ADN401   0.0000
     9 C1'         13.0910   -44.2930     6.8510 C.3          1 ADN401   0.0000
    10 N9          11.9030   -44.4480     7.8010 N.pl3        1 ADN401   0.0000
    11 C8          11.3420   -43.6300     8.7090 C.2          1 ADN401   0.0000
    12 N7          10.3240   -44.2880     9.2980 N.2          1 ADN401   0.0000
    13 C5          10.2580   -45.5200     8.7510 C.ar         1 ADN401   0.0000
    14 C6           9.4400   -46.5780     8.9910 C.ar         1 ADN401   0.0000
    15 N6           8.4750   -46.4750     9.9640 N.pl3        1 ADN401   0.0000
    16 N1           9.6090   -47.7080     8.2700 N.ar         1 ADN401   0.0000
    17 C2          10.6280   -47.7820     7.3090 C.ar         1 ADN401   0.0000
    18 N3          11.4700   -46.6930     7.0730 N.ar         1 ADN401   0.0000
    19 C4          11.2480   -45.6020     7.8200 C.ar         1 ADN401   0.0000
    20 H5'         12.1156   -39.4588     8.6783 H            1 ADN401   0.0000
    21 H5'1        14.0081   -40.7835     8.6501 H            1 ADN401   0.0000
    22 H5'2        13.9262   -39.8653     7.3022 H            1 ADN401   0.0000
    23 H4'         14.5995   -41.6981     6.3114 H            1 ADN401   0.0000
    24 H3'         11.7975   -41.9970     6.3005 H            1 ADN401   0.0000
    25 H6          12.0261   -41.4584     4.0649 H            1 ADN401   0.0000
    26 H2'         11.7428   -44.1071     5.2994 H            1 ADN401   0.0000
    27 H8          13.4953   -45.3048     4.4471 H            1 ADN401   0.0000
    28 H1'         13.5001   -45.1966     6.7239 H            1 ADN401   0.0000
    29 H10         11.6306   -42.6944     8.9122 H            1 ADN401   0.0000
    30 H11          7.8673   -47.2473    10.1493 H            1 ADN401   0.0000
    31 H12          8.3805   -45.6278    10.4867 H            1 ADN401   0.0000
    32 H13         10.7532   -48.6252     6.7862 H            1 ADN401   0.0000
@<TRIPOS>BOND
     1    1    2       1
     2    2    3       1
     3    3    4       1
     4    3    5       1
     5    4    9       1
     6    5    6       1
     7    5    7       1
     8    7    8       1
     9    7    9       1
    10    9   10       1
    11   10   11       1
    12   10   19       1
    13   11   12       2
    14   12   13       1
    15   13   14      ar
    16   13   19      ar
    17   14   15       1
    18   14   16      ar
    19   16   17      ar
    20   17   18      ar
    21   18   19      ar
    22    1   20       1
    23    2   21       1
    24    2   22       1
    25    3   23       1
    26    5   24       1
    27    6   25       1
    28    7   26       1
    29    8   27       1
    30    9   28       1
    31   11   29       1
    32   15   30       1
    33   15   31       1
    34   17   32       1
@<TRIPOS>SUBSTRUCTURE
     1 ADN401      1 GROUP             4 B     ADN     0 **** ADN B 401
