@<TRIPOS>MOLECULE
1v5y_4HC_2_ligand
   18    19     1     0     0
SMALL
NO_CHARGES


@<TRIPOS>ATOM
     1 CA          63.6510    32.5800    19.5990 C.2          1 4HC1201   0.0000
     2 CA2         63.4890    33.6150    20.4940 C.2          1 4HC1201   0.0000
     3 CA4         63.8590    32.1250    22.3410 C.ar         1 4HC1201   0.0000
     4 CA5         64.1150    31.1060    21.4420 C.ar         1 4HC1201   0.0000
     5 CA6         64.0240    31.3450    20.0660 C.2          1 4HC1201   0.0000
     6 CD1         63.8670    31.8920    23.7150 C.ar         1 4HC1201   0.0000
     7 CD2         64.3960    30.7000    24.1810 C.ar         1 4HC1201   0.0000
     8 CD3         64.5640    29.6380    23.2960 C.ar         1 4HC1201   0.0000
     9 CD4         64.4610    29.8500    21.9210 C.ar         1 4HC1201   0.0000
    10 OA2         63.2680    34.7390    20.0740 O.3          1 4HC1201   0.0000
    11 OA3         63.5910    33.3900    21.8550 O.2          1 4HC1201   0.0000
    12 OA6         64.2960    30.3670    19.1730 O.2          1 4HC1201   0.0000
    13 HA          63.4987    32.7271    18.6217 H            1 4HC1201   0.0000
    14 HD1         63.4988    32.5707    24.3505 H            1 4HC1201   0.0000
    15 HD2         64.6544    30.6030    25.1421 H            1 4HC1201   0.0000
    16 HD3         64.7588    28.7220    23.6467 H            1 4HC1201   0.0000
    17 HD4         64.6357    29.1001    21.2830 H            1 4HC1201   0.0000
    18 HA2         63.1488    35.4976    20.7145 H            1 4HC1201   0.0000
@<TRIPOS>BOND
     1    1    2       2
     2    1    5       1
     3    2   10       1
     4    2   11       1
     5    3    4      ar
     6    3    6      ar
     7    3   11       1
     8    4    5       1
     9    4    9      ar
    10    5   12       2
    11    6    7      ar
    12    7    8      ar
    13    8    9      ar
    14    1   13       1
    15    6   14       1
    16    7   15       1
    17    8   16       1
    18    9   17       1
    19   10   18       1
@<TRIPOS>SUBSTRUCTURE
     1 4HC1201     1 GROUP             4 B     4HC     0 **** 4HC B1201
