@<TRIPOS>MOLECULE
4luh_DIU_2_ligand
   15    15     1     0     0
SMALL
NO_CHARGES


@<TRIPOS>ATOM
     1 C           54.9280   -18.6230    19.0110 C.2          1 DIU602   0.0000
     2 O1          55.0290   -17.4030    18.6850 O.co2        1 DIU602   0.0000
     3 O2          55.8900   -19.3250    19.4050 O.co2        1 DIU602  -1.0000
     4 O3          54.4990   -21.0080    20.3330 O.3          1 DIU602   0.0000
     5 C1          53.5860   -19.2650    19.0310 C.ar         1 DIU602   0.0000
     6 C2          53.3970   -20.4670    19.7340 C.ar         1 DIU602   0.0000
     7 C3          52.0830   -21.0450    19.7770 C.ar         1 DIU602   0.0000
     8 C4          51.0520   -20.3740    19.0830 C.ar         1 DIU602   0.0000
     9 C5          51.2680   -19.1810    18.3690 C.ar         1 DIU602   0.0000
    10 C6          52.5470   -18.6240    18.3560 C.ar         1 DIU602   0.0000
    11 I1          51.6620   -22.8890    20.8710 I            1 DIU602   0.0000
    12 I2          49.6470   -18.2300    17.3210 I            1 DIU602   0.0000
    13 H1          55.3845   -20.5494    20.2584 H            1 DIU602   0.0000
    14 H2          50.1308   -20.7627    19.0998 H            1 DIU602   0.0000
    15 H3          52.7181   -17.7696    17.8653 H            1 DIU602   0.0000
@<TRIPOS>BOND
     1    1    2      ar
     2    1    3      ar
     3    1    5       1
     4    4    6       1
     5    5    6      ar
     6    5   10      ar
     7    6    7      ar
     8    7    8      ar
     9    7   11       1
    10    8    9      ar
    11    9   10      ar
    12    9   12       1
    13   10   15       1
    14    4   13       1
    15    8   14       1
@<TRIPOS>SUBSTRUCTURE
     1 DIU602      1 GROUP             4 A     DIU     0 **** DIU A 602
