@<TRIPOS>MOLECULE
3nu0_3TU_1_ligand
   55    59     1     0     0
SMALL
NO_CHARGES


@<TRIPOS>ATOM
     1 C          -12.7150    -2.7170    -0.8000 C.2          1 3TU188   0.0000
     2 N          -10.9200    -4.4890    -0.4270 N.am         1 3TU188   0.0000
     3 O          -13.6570    -3.5530    -0.8790 O.co2        1 3TU188   0.0000
     4 N1         -13.6640   -12.0240    -3.4060 N.pl3        1 3TU188   0.0000
     5 C2         -15.0040   -12.2290    -3.5430 C.2          1 3TU188   0.0000
     6 N3         -15.8120   -12.3070    -2.4990 N.2          1 3TU188   0.0000
     7 C4         -15.2540   -12.0370    -1.2730 C.2          1 3TU188   0.0000
     8 C5         -13.8800   -11.6830    -1.0500 C.2          1 3TU188   0.0000
     9 C6         -13.0960   -11.8380    -2.1810 C.2          1 3TU188   0.0000
    10 O6         -11.7640   -11.7670    -2.2500 O.2          1 3TU188   0.0000
    11 CA         -11.3790    -3.2800    -1.1710 C.3          1 3TU188   0.0000
    12 CB         -10.8300    -3.0690    -2.5210 C.3          1 3TU188   0.0000
    13 CD          -8.5330    -2.2280    -2.2440 C.2          1 3TU188   0.0000
    14 CG          -9.3560    -3.4250    -2.8150 C.3          1 3TU188   0.0000
    15 NAA        -15.4650   -12.4200    -4.7900 N.pl3        1 3TU188   0.0000
    16 OAD         -9.0170    -3.7830     0.5060 O.2          1 3TU188   0.0000
    17 CAH        -13.8040   -10.8250     3.1170 C.ar         1 3TU188   0.0000
    18 CAI         -9.0040    -8.1110     1.6470 C.ar         1 3TU188   0.0000
    19 CAJ        -12.6000   -10.7550     2.4080 C.ar         1 3TU188   0.0000
    20 CAK         -8.8140    -6.7280     1.4770 C.ar         1 3TU188   0.0000
    21 CAL        -15.0070   -11.2250     2.4600 C.ar         1 3TU188   0.0000
    22 CAM        -10.9960    -8.1230     0.2530 C.ar         1 3TU188   0.0000
    23 CAP        -11.1210   -10.9830     0.4420 C.3          1 3TU188   0.0000
    24 CAQ        -11.6010    -5.7870    -0.6730 C.3          1 3TU188   0.0000
    25 NAT        -10.1750   -10.1330     1.2440 N.pl3        1 3TU188   0.0000
    26 SAU        -16.1840   -12.0430     0.1110 S.3          1 3TU188   0.0000
    27 CAX         -9.8550    -4.6880     0.3270 C.2          1 3TU188   0.0000
    28 CAZ        -10.0810    -8.8200     1.0580 C.ar         1 3TU188   0.0000
    29 CBB        -10.7980    -6.7170     0.1110 C.ar         1 3TU188   0.0000
    30 CBC        -12.4660   -11.0600     1.0690 C.ar         1 3TU188   0.0000
    31 CBD         -9.7370    -6.0310     0.7220 C.ar         1 3TU188   0.0000
    32 CBE        -14.8220   -11.4810     1.0690 C.ar         1 3TU188   0.0000
    33 CBH        -13.6590   -11.4290     0.3240 C.ar         1 3TU188   0.0000
    34 OE1         -9.1530    -1.1360    -2.1850 O.co2        1 3TU188   0.0000
    35 OE2         -7.3150    -2.4060    -1.9310 O.co2        1 3TU188  -1.0000
    36 OXT        -12.8920    -1.5190    -0.4980 O.co2        1 3TU188  -1.0000
    37 H1         -13.0851   -12.0097    -4.2213 H            1 3TU188   0.0000
    38 HA         -10.8145    -2.6077    -0.6921 H            1 3TU188   0.0000
    39 HB1        -10.9403    -2.0973    -2.7297 H            1 3TU188   0.0000
    40 HB2        -11.3893    -3.6103    -3.1488 H            1 3TU188   0.0000
    41 HG1         -9.2059    -3.5176    -3.7993 H            1 3TU188   0.0000
    42 HG2         -9.1017    -4.2770    -2.3574 H            1 3TU188   0.0000
    43 HAA1       -16.4409   -12.5747    -4.9441 H            1 3TU188   0.0000
    44 HAA2       -14.8324   -12.4075    -5.5643 H            1 3TU188   0.0000
    45 HAH        -13.8222   -10.5935     4.0897 H            1 3TU188   0.0000
    46 HAI         -8.3497    -8.6172     2.2088 H            1 3TU188   0.0000
    47 HAJ        -11.7821   -10.4646     2.9047 H            1 3TU188   0.0000
    48 HAK         -8.0322    -6.2620     1.8913 H            1 3TU188   0.0000
    49 HAL        -15.8870   -11.3161     2.9262 H            1 3TU188   0.0000
    50 HAM        -11.7537    -8.5916    -0.2012 H            1 3TU188   0.0000
    51 HAP1       -10.7443   -11.9066     0.3709 H            1 3TU188   0.0000
    52 HAP2       -11.2130   -10.5892    -0.4726 H            1 3TU188   0.0000
    53 HAQ1       -11.5851    -6.0253    -1.6441 H            1 3TU188   0.0000
    54 HAQ2       -12.5473    -5.7656    -0.3505 H            1 3TU188   0.0000
    55 HAT         -9.6001   -10.5677     1.9372 H            1 3TU188   0.0000
@<TRIPOS>BOND
     1    1    3      ar
     2    1   11       1
     3    1   36      ar
     4    2   11       1
     5    2   24       1
     6    2   27      am
     7    4    5       1
     8    4    9       1
     9    5    6       2
    10    5   15       1
    11    6    7       1
    12    7    8       2
    13    7   26       1
    14    8    9       1
    15    8   33       1
    16    9   10       2
    17   11   12       1
    18   12   14       1
    19   13   14       1
    20   13   34      ar
    21   13   35      ar
    22   16   27       2
    23   17   19      ar
    24   17   21      ar
    25   18   20      ar
    26   18   28      ar
    27   19   30      ar
    28   20   31      ar
    29   21   32      ar
    30   22   28      ar
    31   22   29      ar
    32   23   25       1
    33   23   30       1
    34   24   29       1
    35   25   28       1
    36   26   32       1
    37   27   31       1
    38   29   31      ar
    39   30   33      ar
    40   32   33      ar
    41   25   55       1
    42    4   37       1
    43   11   38       1
    44   12   39       1
    45   12   40       1
    46   14   41       1
    47   14   42       1
    48   15   43       1
    49   15   44       1
    50   17   45       1
    51   18   46       1
    52   19   47       1
    53   20   48       1
    54   21   49       1
    55   22   50       1
    56   23   51       1
    57   23   52       1
    58   24   53       1
    59   24   54       1
@<TRIPOS>SUBSTRUCTURE
     1 3TU188      1 GROUP             4 A     3TU     0 **** 3TU A 188
