@<TRIPOS>MOLECULE
4hne_ADP_1_ligand
   39    41     1     0     0
SMALL
NO_CHARGES


@<TRIPOS>ATOM
     1 PB         -55.1640    79.4360     4.4480 P.3          1 ADP500   0.0000
     2 O1B        -55.1480    78.1600     3.6310 O.co2        1 ADP500   0.0000
     3 O2B        -54.0750    80.4200     4.0900 O.co2        1 ADP500  -1.0000
     4 O3B        -56.5270    80.0810     4.5970 O.co2        1 ADP500  -1.0000
     5 PA         -53.6400    77.9680     6.3630 P.3          1 ADP500   0.0000
     6 O1A        -53.9010    76.6380     5.6810 O.co2        1 ADP500   0.0000
     7 O2A        -53.4660    78.0250     7.8720 O.co2        1 ADP500  -1.0000
     8 O3A        -54.8250    78.9880     5.9650 O.3          1 ADP500   0.0000
     9 O5'        -52.3870    78.6390     5.6100 O.3          1 ADP500   0.0000
    10 C5'        -51.2870    79.1850     6.3220 C.3          1 ADP500   0.0000
    11 C4'        -49.9690    78.5750     5.8630 C.3          1 ADP500   0.0000
    12 O4'        -49.0180    78.9150     6.8610 O.3          1 ADP500   0.0000
    13 C3'        -49.9660    77.0540     5.7640 C.3          1 ADP500   0.0000
    14 O3'        -49.4000    76.6580     4.5140 O.3          1 ADP500   0.0000
    15 C2'        -49.0900    76.5340     6.8860 C.3          1 ADP500   0.0000
    16 O2'        -47.9590    75.8120     6.3620 O.3          1 ADP500   0.0000
    17 C1'        -48.6470    77.7840     7.6440 C.3          1 ADP500   0.0000
    18 N9         -49.2920    77.9030     8.9830 N.pl3        1 ADP500   0.0000
    19 C8         -50.6100    78.0270     9.2500 C.2          1 ADP500   0.0000
    20 N7         -50.8390    78.1110    10.5860 N.2          1 ADP500   0.0000
    21 C5         -49.6410    78.0430    11.2110 C.ar         1 ADP500   0.0000
    22 C6         -49.1430    78.0800    12.6240 C.ar         1 ADP500   0.0000
    23 N6         -49.9850    78.2030    13.6920 N.pl3        1 ADP500   0.0000
    24 N1         -47.7960    77.9900    12.8110 N.ar         1 ADP500   0.0000
    25 C2         -46.9310    77.8570    11.7810 C.ar         1 ADP500   0.0000
    26 N3         -47.3070    77.8220    10.4850 N.ar         1 ADP500   0.0000
    27 C4         -48.6240    77.9100    10.1420 C.ar         1 ADP500   0.0000
    28 H5'1       -51.4079    79.0018     7.2976 H            1 ADP500   0.0000
    29 H5'2       -51.2588    80.1729     6.1693 H            1 ADP500   0.0000
    30 H4'        -49.6980    78.9727     4.9864 H            1 ADP500   0.0000
    31 H3'        -50.8958    76.6972     5.8540 H            1 ADP500   0.0000
    32 H5         -48.5921    76.0920     4.6783 H            1 ADP500   0.0000
    33 H2'        -49.6239    75.9409     7.4887 H            1 ADP500   0.0000
    34 H7         -47.1969    76.4437     6.2202 H            1 ADP500   0.0000
    35 H1'        -47.6533    77.7694     7.7550 H            1 ADP500   0.0000
    36 H9         -51.3262    78.0536     8.5527 H            1 ADP500   0.0000
    37 H10        -49.6148    78.2240    14.6207 H            1 ADP500   0.0000
    38 H11        -50.9718    78.2721    13.5454 H            1 ADP500   0.0000
    39 H12        -45.9564    77.7801    11.9911 H            1 ADP500   0.0000
@<TRIPOS>BOND
     1    1    2      ar
     2    1    3      ar
     3    1    4      ar
     4    1    8       1
     5    5    6      ar
     6    5    7      ar
     7    5    8       1
     8    5    9       1
     9    9   10       1
    10   10   11       1
    11   11   12       1
    12   11   13       1
    13   12   17       1
    14   13   14       1
    15   13   15       1
    16   15   16       1
    17   15   17       1
    18   17   18       1
    19   18   19       1
    20   18   27       1
    21   19   20       2
    22   20   21       1
    23   21   22      ar
    24   21   27      ar
    25   22   23       1
    26   22   24      ar
    27   24   25      ar
    28   25   26      ar
    29   26   27      ar
    30   25   39       1
    31   23   38       1
    32   23   37       1
    33   10   28       1
    34   10   29       1
    35   11   30       1
    36   13   31       1
    37   14   32       1
    38   15   33       1
    39   16   34       1
    40   17   35       1
    41   19   36       1
@<TRIPOS>SUBSTRUCTURE
     1 ADP500      1 GROUP             4 A     ADP     0 **** ADP A 500
