@<TRIPOS>MOLECULE
4iwo_1H4_1_ligand
   63    67     1     0     0
SMALL
NO_CHARGES


@<TRIPOS>ATOM
     1 C14        -25.7940   -15.3910    18.3870 C.3          1 1H4701   0.0000
     2 C11        -25.0450   -17.7430    16.1910 C.ar         1 1H4701   0.0000
     3 C10        -24.2280   -17.7420    14.1760 C.ar         1 1H4701   0.0000
     4 C12        -25.7760   -16.6710    16.2750 C.ar         1 1H4701   0.0000
     5 C13        -26.5800   -16.2340    17.5440 C.3          1 1H4701   0.0000
     6 C01        -29.7520   -10.9790    14.6370 C.2          1 1H4701   0.0000
     7 C02        -28.5510   -10.2250    15.2500 C.2          1 1H4701   0.0000
     8 C03        -28.9260   -10.8410    16.5880 C.3          1 1H4701   0.0000
     9 C04        -29.8860   -11.6480    15.8780 C.3          1 1H4701   0.0000
    10 C05        -29.4260   -13.0550    15.7930 C.2          1 1H4701   0.0000
    11 O01        -29.3450   -13.6330    17.0600 O.2          1 1H4701   0.0000
    12 N01        -29.2130   -13.3830    14.4800 N.am         1 1H4701   0.0000
    13 C06        -29.1510   -14.7940    14.0890 C.3          1 1H4701   0.0000
    14 C07        -28.0420   -14.9800    13.0320 C.3          1 1H4701   0.0000
    15 C08        -26.8200   -14.2070    13.4990 C.3          1 1H4701   0.0000
    16 N02        -26.5070   -14.6300    14.8380 N.pl3        1 1H4701   0.0000
    17 C09        -25.7770   -15.8680    15.0130 C.ar         1 1H4701   0.0000
    18 N03        -24.9180   -16.4560    13.8450 N.ar         1 1H4701   0.0000
    19 N04        -24.4180   -18.1490    15.2990 N.ar         1 1H4701   0.0000
    20 C15        -26.0390   -16.8400    18.7200 C.3          1 1H4701   0.0000
    21 N05        -23.3780   -18.4490    13.2530 N.pl3        1 1H4701   0.0000
    22 C16        -23.4620   -18.3170    11.8010 C.ar         1 1H4701   0.0000
    23 C17        -22.4840   -19.1550    10.8210 C.ar         1 1H4701   0.0000
    24 C18        -22.6930   -18.9060     9.3690 C.ar         1 1H4701   0.0000
    25 C19        -23.6030   -18.0740     9.1170 C.ar         1 1H4701   0.0000
    26 C20        -24.3380   -17.4380     9.7870 C.ar         1 1H4701   0.0000
    27 C21        -24.4310   -17.4100    11.0780 C.ar         1 1H4701   0.0000
    28 N          -21.9180   -19.5590     8.3480 N.am         1 1H4701   0.0000
    29 C22        -22.4190   -19.9760     7.0420 C.3          1 1H4701   0.0000
    30 C23        -21.2230   -20.4990     6.2560 C.3          1 1H4701   0.0000
    31 C24        -20.0650   -20.5530     7.1920 C.3          1 1H4701   0.0000
    32 C          -20.5000   -19.8970     8.4510 C.2          1 1H4701   0.0000
    33 O          -19.7820   -19.6830     9.4170 O.2          1 1H4701   0.0000
    34 H1         -26.2290   -14.6692    18.9253 H            1 1H4701   0.0000
    35 H2         -24.8878   -15.0873    18.0928 H            1 1H4701   0.0000
    36 H3         -25.0175   -18.3036    17.0187 H            1 1H4701   0.0000
    37 H4         -27.5661   -16.0825    17.4757 H            1 1H4701   0.0000
    38 H5         -30.2246   -10.9898    13.7558 H            1 1H4701   0.0000
    39 H6         -27.8410    -9.6057    14.9148 H            1 1H4701   0.0000
    40 H7         -29.3243   -10.2006    17.2447 H            1 1H4701   0.0000
    41 H8         -28.1923   -11.3577    17.0293 H            1 1H4701   0.0000
    42 H9         -30.8077   -11.5690    16.2577 H            1 1H4701   0.0000
    43 H10        -29.1006   -12.6648    13.7933 H            1 1H4701   0.0000
    44 H11        -30.0305   -15.0731    13.7035 H            1 1H4701   0.0000
    45 H12        -28.9457   -15.3546    14.8913 H            1 1H4701   0.0000
    46 H13        -28.3510   -14.6266    12.1491 H            1 1H4701   0.0000
    47 H14        -27.8169   -15.9502    12.9424 H            1 1H4701   0.0000
    48 H15        -27.0158   -13.2264    13.4906 H            1 1H4701   0.0000
    49 H16        -26.0469   -14.3977    12.8940 H            1 1H4701   0.0000
    50 H17        -26.7864   -14.0832    15.6273 H            1 1H4701   0.0000
    51 H18        -26.6383   -17.0886    19.4809 H            1 1H4701   0.0000
    52 H19        -25.2971   -17.5067    18.6485 H            1 1H4701   0.0000
    53 H20        -22.6884   -19.0678    13.6292 H            1 1H4701   0.0000
    54 H21        -21.7929   -19.7908    11.1646 H            1 1H4701   0.0000
    55 H22        -23.7312   -17.9179     8.1376 H            1 1H4701   0.0000
    56 H23        -24.9717   -16.8430     9.2927 H            1 1H4701   0.0000
    57 H24        -25.0918   -16.8337    11.5589 H            1 1H4701   0.0000
    58 H25        -22.8294   -19.1978     6.5666 H            1 1H4701   0.0000
    59 H26        -23.1020   -20.6984     7.1502 H            1 1H4701   0.0000
    60 H27        -21.0188   -19.8838     5.4945 H            1 1H4701   0.0000
    61 H28        -21.4197   -21.4134     5.9023 H            1 1H4701   0.0000
    62 H29        -19.2840   -20.0654     6.8018 H            1 1H4701   0.0000
    63 H30        -19.8098   -21.5035     7.3694 H            1 1H4701   0.0000
@<TRIPOS>BOND
     1    1    5       1
     2    1   20       1
     3    2    4      ar
     4    2   19      ar
     5    3   18      ar
     6    3   19      ar
     7    3   21       1
     8    4    5       1
     9    4   17      ar
    10    5   20       1
    11    6    7       2
    12    6    9       1
    13    7    8       1
    14    8    9       1
    15    9   10       1
    16   10   11       2
    17   10   12      am
    18   12   13       1
    19   13   14       1
    20   14   15       1
    21   15   16       1
    22   16   17       1
    23   17   18      ar
    24   21   22       1
    25   22   23      ar
    26   22   27      ar
    27   23   24      ar
    28   24   25      ar
    29   24   28       1
    30   25   26      ar
    31   26   27      ar
    32   28   29       1
    33   28   32      am
    34   29   30       1
    35   30   31       1
    36   31   32       1
    37   32   33       2
    38    1   34       1
    39    1   35       1
    40    2   36       1
    41    5   37       1
    42    6   38       1
    43    7   39       1
    44    8   40       1
    45    8   41       1
    46    9   42       1
    47   12   43       1
    48   13   44       1
    49   13   45       1
    50   14   46       1
    51   14   47       1
    52   15   48       1
    53   15   49       1
    54   16   50       1
    55   20   51       1
    56   20   52       1
    57   21   53       1
    58   23   54       1
    59   25   55       1
    60   26   56       1
    61   27   57       1
    62   29   58       1
    63   29   59       1
    64   30   60       1
    65   30   61       1
    66   31   62       1
    67   31   63       1
@<TRIPOS>SUBSTRUCTURE
     1 1H4701      1 GROUP             4 A     1H4     0 **** 1H4 A 701
