@<TRIPOS>MOLECULE
3gu3_SAH_1_ligand
   46    48     1     0     0
SMALL
NO_CHARGES


@<TRIPOS>ATOM
     1 N           47.5460    36.4080    14.8390 N.4          1 SAH401   1.0000
     2 CA          48.4990    35.4220    15.3510 C.3          1 SAH401   0.0000
     3 CB          49.8690    35.6690    14.6830 C.3          1 SAH401   0.0000
     4 CG          50.9860    34.6970    15.1020 C.3          1 SAH401   0.0000
     5 SD          52.6970    34.9270    14.5460 S.3          1 SAH401   0.0000
     6 C           48.6090    35.5530    16.9030 C.2          1 SAH401   0.0000
     7 O           48.6500    36.7260    17.3690 O.co2        1 SAH401   0.0000
     8 OXT         48.6550    34.5140    17.6220 O.co2        1 SAH401  -1.0000
     9 C5'         52.3720    35.3410    12.7700 C.3          1 SAH401   0.0000
    10 C4'         51.9100    34.2290    11.8510 C.3          1 SAH401   0.0000
    11 O4'         52.4020    34.5990    10.5670 O.3          1 SAH401   0.0000
    12 C3'         52.4200    32.7740    12.2170 C.3          1 SAH401   0.0000
    13 O3'         51.2900    31.9590    12.7150 O.3          1 SAH401   0.0000
    14 C2'         53.0470    32.2410    10.9210 C.3          1 SAH401   0.0000
    15 O2'         52.4070    31.0750    10.3620 O.3          1 SAH401   0.0000
    16 C1'         53.0860    33.4570     9.9850 C.3          1 SAH401   0.0000
    17 N9          53.5290    33.8530     8.6510 N.pl3        1 SAH401   0.0000
    18 C8          54.7940    34.3650     8.2650 C.2          1 SAH401   0.0000
    19 N7          54.8160    34.5980     6.9560 N.2          1 SAH401   0.0000
    20 C5          53.5560    34.2510     6.4660 C.ar         1 SAH401   0.0000
    21 C6          52.9090    34.2310     5.1600 C.ar         1 SAH401   0.0000
    22 N6          53.5290    34.6490     4.0470 N.pl3        1 SAH401   0.0000
    23 N1          51.5850    33.7950     5.0380 N.ar         1 SAH401   0.0000
    24 C2          50.9490    33.3730     6.1330 C.ar         1 SAH401   0.0000
    25 N3          51.4160    33.3280     7.3710 N.ar         1 SAH401   0.0000
    26 C4          52.7450    33.7620     7.4990 C.ar         1 SAH401   0.0000
    27 H1          46.6528    36.2600    15.2636 H            1 SAH401   0.0000
    28 H2          47.8699    37.3288    15.0564 H            1 SAH401   0.0000
    29 HA          48.1797    34.5031    15.1192 H            1 SAH401   0.0000
    30 HB1         50.1631    36.5965    14.9137 H            1 SAH401   0.0000
    31 HB2         49.7487    35.5940    13.6931 H            1 SAH401   0.0000
    32 HG1         50.7055    33.7909    14.7854 H            1 SAH401   0.0000
    33 HG2         51.0099    34.7081    16.1017 H            1 SAH401   0.0000
    34 H5'1        53.2218    35.7064    12.3900 H            1 SAH401   0.0000
    35 H5'2        51.6677    36.0507    12.7547 H            1 SAH401   0.0000
    36 H4'         50.9103    34.2246    11.8255 H            1 SAH401   0.0000
    37 H3'         53.1229    32.8363    12.9255 H            1 SAH401   0.0000
    38 H12         50.5873    31.8951    12.0064 H            1 SAH401   0.0000
    39 H2'         53.9934    31.9923    11.1273 H            1 SAH401   0.0000
    40 H14         51.4532    31.2878    10.1497 H            1 SAH401   0.0000
    41 H1'         53.9550    33.7546    10.3803 H            1 SAH401   0.0000
    42 H16         55.5594    34.5274     8.8877 H            1 SAH401   0.0000
    43 H17         53.0524    34.6202     3.1683 H            1 SAH401   0.0000
    44 H18         54.4680    34.9895     4.0956 H            1 SAH401   0.0000
    45 H19         50.0103    33.0536     6.0031 H            1 SAH401   0.0000
    46 H20         47.4642    36.3089    13.8473 H            1 SAH401   0.0000
@<TRIPOS>BOND
     1    1    2       1
     2    2    3       1
     3    2    6       1
     4    3    4       1
     5    4    5       1
     6    5    9       1
     7    6    7      ar
     8    6    8      ar
     9    9   10       1
    10   10   11       1
    11   10   12       1
    12   11   16       1
    13   12   13       1
    14   12   14       1
    15   14   15       1
    16   14   16       1
    17   16   17       1
    18   17   18       1
    19   17   26       1
    20   18   19       2
    21   19   20       1
    22   20   21      ar
    23   20   26      ar
    24   21   22       1
    25   21   23      ar
    26   23   24      ar
    27   24   25      ar
    28   25   26      ar
    29    1   27       1
    30    1   28       1
    31    2   29       1
    32    3   30       1
    33    3   31       1
    34    4   32       1
    35    4   33       1
    36    1   46       1
    37    9   34       1
    38    9   35       1
    39   10   36       1
    40   12   37       1
    41   13   38       1
    42   14   39       1
    43   15   40       1
    44   16   41       1
    45   18   42       1
    46   22   43       1
    47   22   44       1
    48   24   45       1
@<TRIPOS>SUBSTRUCTURE
     1 SAH401      1 GROUP             4 A     SAH     0 **** SAH A 401
