@<TRIPOS>MOLECULE
4b1v_ATP_3_ligand
   43    45     1     0     0
SMALL
NO_CHARGES


@<TRIPOS>ATOM
     1 PG         -12.1080    -3.0410    -7.8280 P.3          1 ATP1377   0.0000
     2 O1G        -12.5480    -3.2520    -9.2660 O.co2        1 ATP1377   0.0000
     3 O2G        -10.6680    -3.4250    -7.5600 O.co2        1 ATP1377  -1.0000
     4 O3G        -13.0820    -3.5520    -6.8040 O.co2        1 ATP1377  -1.0000
     5 PB         -11.0880    -0.2970    -7.7800 P.3          1 ATP1377   0.0000
     6 O1B         -9.7120    -0.8850    -8.0810 O.co2        1 ATP1377   0.0000
     7 O2B        -11.6190     0.7480    -8.7470 O.co2        1 ATP1377  -1.0000
     8 O3B        -12.2060    -1.4380    -7.5810 O.3          1 ATP1377   0.0000
     9 PA          -9.8390     1.0760    -5.5210 P.3          1 ATP1377   0.0000
    10 O1A         -8.8790     0.0940    -4.9190 O.co2        1 ATP1377   0.0000
    11 O2A         -9.3850     2.1080    -6.5340 O.co2        1 ATP1377  -1.0000
    12 O3A        -11.0450     0.2730    -6.2680 O.3          1 ATP1377   0.0000
    13 O5'        -10.6290     1.7620    -4.3100 O.3          1 ATP1377   0.0000
    14 C5'        -11.7550     2.6290    -4.4680 C.3          1 ATP1377   0.0000
    15 C4'        -12.6940     2.2870    -3.3060 C.3          1 ATP1377   0.0000
    16 O4'        -11.9540     2.2930    -2.0890 O.3          1 ATP1377   0.0000
    17 C3'        -13.8640     3.2430    -3.1230 C.3          1 ATP1377   0.0000
    18 O3'        -14.9880     2.4840    -2.6660 O.3          1 ATP1377   0.0000
    19 C2'        -13.3880     4.1240    -1.9890 C.3          1 ATP1377   0.0000
    20 O2'        -14.4680     4.7620    -1.2990 O.3          1 ATP1377   0.0000
    21 C1'        -12.6050     3.1310    -1.1500 C.3          1 ATP1377   0.0000
    22 N9         -11.6590     3.9120    -0.3680 N.pl3        1 ATP1377   0.0000
    23 C8         -10.7330     4.7680    -0.8570 C.2          1 ATP1377   0.0000
    24 N7         -10.0560     5.3520     0.1670 N.2          1 ATP1377   0.0000
    25 C5         -10.5680     4.8600     1.3020 C.ar         1 ATP1377   0.0000
    26 C6         -10.3040     5.0730     2.7310 C.ar         1 ATP1377   0.0000
    27 N6          -9.3310     5.9380     3.0800 N.pl3        1 ATP1377   0.0000
    28 N1         -11.0450     4.3920     3.6310 N.ar         1 ATP1377   0.0000
    29 C2         -12.0070     3.5310     3.2350 C.ar         1 ATP1377   0.0000
    30 N3         -12.2950     3.2860     1.9480 N.ar         1 ATP1377   0.0000
    31 C4         -11.6260     3.9210     0.9590 C.ar         1 ATP1377   0.0000
    32 H5'1       -12.2064     2.4609    -5.3444 H            1 ATP1377   0.0000
    33 H5'2       -11.4699     3.5862    -4.4180 H            1 ATP1377   0.0000
    34 H4'        -13.0566     1.3666    -3.4519 H            1 ATP1377   0.0000
    35 H3'        -14.0659     3.7634    -3.9527 H            1 ATP1377   0.0000
    36 H5         -15.5118     2.1575    -3.4528 H            1 ATP1377   0.0000
    37 H2'        -12.7656     4.8197    -2.3475 H            1 ATP1377   0.0000
    38 H7         -14.1583     5.6403    -0.9348 H            1 ATP1377   0.0000
    39 H1'        -13.2127     2.6029    -0.5569 H            1 ATP1377   0.0000
    40 H9         -10.5705     4.9450    -1.8277 H            1 ATP1377   0.0000
    41 H10         -9.1304     6.1018     4.0459 H            1 ATP1377   0.0000
    42 H11         -8.8097     6.4160     2.3730 H            1 ATP1377   0.0000
    43 H12        -12.5320     3.0510     3.9378 H            1 ATP1377   0.0000
@<TRIPOS>BOND
     1    1    2      ar
     2    1    3      ar
     3    1    4      ar
     4    1    8       1
     5    5    6      ar
     6    5    7      ar
     7    5    8       1
     8    5   12       1
     9    9   10      ar
    10    9   11      ar
    11    9   12       1
    12    9   13       1
    13   13   14       1
    14   14   15       1
    15   15   16       1
    16   15   17       1
    17   16   21       1
    18   17   18       1
    19   17   19       1
    20   19   20       1
    21   19   21       1
    22   21   22       1
    23   22   23       1
    24   22   31       1
    25   23   24       2
    26   24   25       1
    27   25   26      ar
    28   25   31      ar
    29   26   27       1
    30   26   28      ar
    31   28   29      ar
    32   29   30      ar
    33   30   31      ar
    34   29   43       1
    35   27   42       1
    36   27   41       1
    37   23   40       1
    38   14   32       1
    39   14   33       1
    40   15   34       1
    41   17   35       1
    42   18   36       1
    43   19   37       1
    44   20   38       1
    45   21   39       1
@<TRIPOS>SUBSTRUCTURE
     1 ATP1377     1 GROUP             4 A     ATP     0 **** ATP A1377
