@<TRIPOS>MOLECULE
4p53_NAI_1_ligand
   71    75     1     0     0
SMALL
NO_CHARGES


@<TRIPOS>ATOM
     1 PA          29.9440    35.5230    30.7460 P.3          1 NAI502   0.0000
     2 O1A         30.6320    35.8410    32.0170 O.co2        1 NAI502   0.0000
     3 O2A         28.6790    34.7140    30.8960 O.co2        1 NAI502  -1.0000
     4 O5B         30.9610    34.8110    29.7470 O.3          1 NAI502   0.0000
     5 C5B         30.5520    34.4530    28.4080 C.3          1 NAI502   0.0000
     6 C4B         30.9890    33.0480    28.0580 C.3          1 NAI502   0.0000
     7 O4B         32.3780    33.0360    27.6580 O.3          1 NAI502   0.0000
     8 C3B         30.8590    32.0100    29.1770 C.3          1 NAI502   0.0000
     9 O3B         30.3330    30.8010    28.6460 O.3          1 NAI502   0.0000
    10 C2B         32.3000    31.8460    29.6740 C.3          1 NAI502   0.0000
    11 O2B         32.5150    30.5410    30.2010 O.3          1 NAI502   0.0000
    12 C1B         33.0660    32.0230    28.3670 C.3          1 NAI502   0.0000
    13 N9A         34.4570    32.4470    28.5000 N.pl3        1 NAI502   0.0000
    14 C8A         34.9410    33.4370    29.3140 C.2          1 NAI502   0.0000
    15 N7A         36.1770    33.7790    29.0540 N.2          1 NAI502   0.0000
    16 C5A         36.5380    32.9560    28.0010 C.ar         1 NAI502   0.0000
    17 C6A         37.6960    32.8840    27.1990 C.ar         1 NAI502   0.0000
    18 N6A         38.7260    33.7250    27.3010 N.pl3        1 NAI502   0.0000
    19 N1A         37.7200    31.9640    26.2110 N.ar         1 NAI502   0.0000
    20 C2A         36.6510    31.1850    26.0320 C.ar         1 NAI502   0.0000
    21 N3A         35.4990    31.1800    26.7050 N.ar         1 NAI502   0.0000
    22 C4A         35.5000    32.1030    27.6740 C.ar         1 NAI502   0.0000
    23 O3          29.4400    36.8810    30.0590 O.3          1 NAI502   0.0000
    24 PN          30.0550    38.2970    29.6250 P.3          1 NAI502   0.0000
    25 O1N         29.4670    38.6900    28.3200 O.co2        1 NAI502   0.0000
    26 O2N         31.5230    38.3190    29.7860 O.co2        1 NAI502  -1.0000
    27 O5D         29.4640    39.2440    30.7540 O.3          1 NAI502   0.0000
    28 C5D         28.0340    39.3950    30.7990 C.3          1 NAI502   0.0000
    29 C4D         27.6310    40.1020    32.0660 C.3          1 NAI502   0.0000
    30 O4D         28.3680    41.3340    32.2370 O.3          1 NAI502   0.0000
    31 C3D         26.1690    40.5130    32.0960 C.3          1 NAI502   0.0000
    32 O3D         25.5630    39.8920    33.2220 O.3          1 NAI502   0.0000
    33 C2D         26.2620    42.0320    32.2140 C.3          1 NAI502   0.0000
    34 O2D         25.2760    42.5430    33.1030 O.3          1 NAI502   0.0000
    35 C1D         27.5710    42.2080    32.9630 C.3          1 NAI502   0.0000
    36 N1N         28.0290    43.6300    32.7750 N.pl3        1 NAI502   0.0000
    37 C2N         28.3700    44.3140    33.9490 C.2          1 NAI502   0.0000
    38 C3N         28.8280    45.6170    33.8830 C.2          1 NAI502   0.0000
    39 C7N         29.2740    46.3350    35.1410 C.2          1 NAI502   0.0000
    40 O7N         29.5260    47.5530    35.0980 O.2          1 NAI502   0.0000
    41 N7N         29.3110    45.6490    36.2640 N.am         1 NAI502   0.0000
    42 C4N         28.9380    46.2220    32.6360 C.3          1 NAI502   0.0000
    43 C5N         28.6090    45.5210    31.4810 C.2          1 NAI502   0.0000
    44 C6N         28.1500    44.2250    31.5730 C.2          1 NAI502   0.0000
    45 H5B1        30.9634    35.0934    27.7594 H            1 NAI502   0.0000
    46 H5B2        29.5555    34.5094    28.3456 H            1 NAI502   0.0000
    47 H4B         30.4404    32.7372    27.2818 H            1 NAI502   0.0000
    48 H3B         30.2726    32.3557    29.9096 H            1 NAI502   0.0000
    49 H5          29.4323    30.9757    28.2482 H            1 NAI502   0.0000
    50 H2B         32.5410    32.5535    30.3384 H            1 NAI502   0.0000
    51 H7          33.2102    30.5817    30.9186 H            1 NAI502   0.0000
    52 H1B         33.0290    31.1711    27.8446 H            1 NAI502   0.0000
    53 H8A         34.3992    33.8597    30.0405 H            1 NAI502   0.0000
    54 H6A1        39.5190    33.6194    26.7010 H            1 NAI502   0.0000
    55 H6A2        38.7053    34.4612    27.9774 H            1 NAI502   0.0000
    56 H2A         36.7233    30.5145    25.2936 H            1 NAI502   0.0000
    57 H5D1        27.6046    38.4923    30.7724 H            1 NAI502   0.0000
    58 H5D2        27.7325    39.9309    30.0104 H            1 NAI502   0.0000
    59 H4D         27.8156    39.5026    32.8449 H            1 NAI502   0.0000
    60 H3D         25.7062    40.2482    31.2500 H            1 NAI502   0.0000
    61 H17         24.8177    39.3000    32.9152 H            1 NAI502   0.0000
    62 H2D         26.2586    42.4911    31.3256 H            1 NAI502   0.0000
    63 H19         25.3616    43.5377    33.1596 H            1 NAI502   0.0000
    64 H1D         27.4994    41.9518    33.9270 H            1 NAI502   0.0000
    65 H2N         28.2821    43.8596    34.8354 H            1 NAI502   0.0000
    66 H7N1        29.6007    46.0931    37.1119 H            1 NAI502   0.0000
    67 H7N2        29.0494    44.6838    36.2692 H            1 NAI502   0.0000
    68 H4N1        29.8921    46.5048    32.5377 H            1 NAI502   0.0000
    69 H4N2        28.3510    47.0313    32.6572 H            1 NAI502   0.0000
    70 H5N         28.7053    45.9563    30.5859 H            1 NAI502   0.0000
    71 H6N         27.9055    43.7238    30.7430 H            1 NAI502   0.0000
@<TRIPOS>BOND
     1    1    2      ar
     2    1    3      ar
     3    1    4       1
     4    1   23       1
     5    4    5       1
     6    5    6       1
     7    6    7       1
     8    6    8       1
     9    7   12       1
    10    8    9       1
    11    8   10       1
    12   10   11       1
    13   10   12       1
    14   12   13       1
    15   13   14       1
    16   13   22       1
    17   14   15       2
    18   15   16       1
    19   16   17      ar
    20   16   22      ar
    21   17   18       1
    22   17   19      ar
    23   19   20      ar
    24   20   21      ar
    25   21   22      ar
    26   23   24       1
    27   24   25      ar
    28   24   26      ar
    29   24   27       1
    30   27   28       1
    31   28   29       1
    32   29   30       1
    33   29   31       1
    34   30   35       1
    35   31   32       1
    36   31   33       1
    37   33   34       1
    38   33   35       1
    39   35   36       1
    40   36   37       1
    41   36   44       1
    42   37   38       2
    43   38   39       1
    44   38   42       1
    45   39   40       2
    46   39   41      am
    47   42   43       1
    48   43   44       2
    49   44   71       1
    50    5   45       1
    51    5   46       1
    52    6   47       1
    53    8   48       1
    54    9   49       1
    55   10   50       1
    56   11   51       1
    57   12   52       1
    58   14   53       1
    59   18   54       1
    60   18   55       1
    61   20   56       1
    62   43   70       1
    63   28   57       1
    64   28   58       1
    65   29   59       1
    66   31   60       1
    67   32   61       1
    68   33   62       1
    69   34   63       1
    70   35   64       1
    71   37   65       1
    72   41   66       1
    73   41   67       1
    74   42   68       1
    75   42   69       1
@<TRIPOS>SUBSTRUCTURE
     1 NAI502      1 GROUP             4 A     NAI     0 **** NAI A 502
