@<TRIPOS>MOLECULE
4pr3_ADE_1_ligand
   15    16     1     0     0
SMALL
NO_CHARGES


@<TRIPOS>ATOM
     1 N9          39.7140    54.3430    82.7610 N.2          1 ADE501   0.0000
     2 C8          40.1450    55.5720    83.1760 C.2          1 ADE501   0.0000
     3 N7          40.0520    55.7540    84.4710 N.pl3        1 ADE501   0.0000
     4 C5          39.5230    54.5620    84.9380 C.ar         1 ADE501   0.0000
     5 C6          39.1820    54.1160    86.2300 C.ar         1 ADE501   0.0000
     6 N6          39.3320    54.8590    87.3310 N.pl3        1 ADE501   0.0000
     7 N1          38.6750    52.8720    86.3490 N.ar         1 ADE501   0.0000
     8 C2          38.5220    52.1280    85.2470 C.ar         1 ADE501   0.0000
     9 N3          38.8040    52.4390    83.9830 N.ar         1 ADE501   0.0000
    10 C4          39.3060    53.6820    83.8970 C.ar         1 ADE501   0.0000
    11 H1          40.4983    56.2674    82.5502 H            1 ADE501   0.0000
    12 H2          39.0723    54.4891    88.2230 H            1 ADE501   0.0000
    13 H3          39.7040    55.7847    87.2626 H            1 ADE501   0.0000
    14 H4          38.1443    51.2136    85.3926 H            1 ADE501   0.0000
    15 H5          40.3043    56.5649    84.9990 H            1 ADE501   0.0000
@<TRIPOS>BOND
     1    1    2       2
     2    1   10       1
     3    2    3       1
     4    3    4       1
     5    4    5      ar
     6    4   10      ar
     7    5    6       1
     8    5    7      ar
     9    7    8      ar
    10    8    9      ar
    11    9   10      ar
    12    8   14       1
    13    2   11       1
    14    6   12       1
    15    6   13       1
    16    3   15       1
@<TRIPOS>SUBSTRUCTURE
     1 ADE501      1 GROUP             4 A     ADE     0 **** ADE A 501
