@<TRIPOS>MOLECULE
4pne_SAH_1_ligand
   46    48     1     0     0
SMALL
NO_CHARGES


@<TRIPOS>ATOM
     1 N           14.1280     6.7330     7.6740 N.4          1 SAH301   1.0000
     2 CA          14.3440     6.9210     9.1120 C.3          1 SAH301   0.0000
     3 CB          13.0920     6.7370     9.9650 C.3          1 SAH301   0.0000
     4 CG          12.2000     5.5510     9.6930 C.3          1 SAH301   0.0000
     5 SD          10.8980     5.4360    10.9290 S.3          1 SAH301   0.0000
     6 C           15.4300     5.9900     9.5760 C.2          1 SAH301   0.0000
     7 O           15.9700     6.1850    10.6500 O.co2        1 SAH301   0.0000
     8 OXT         15.8240     5.0950     8.8230 O.co2        1 SAH301  -1.0000
     9 C5'          9.5290     5.9920     9.8810 C.3          1 SAH301   0.0000
    10 C4'          9.5690     7.4770     9.5520 C.3          1 SAH301   0.0000
    11 O4'          8.6000     7.7690     8.5530 O.3          1 SAH301   0.0000
    12 C3'          9.2330     8.3850    10.7220 C.3          1 SAH301   0.0000
    13 O3'         10.2050     9.4140    10.7060 O.3          1 SAH301   0.0000
    14 C2'          7.8380     8.8960    10.4000 C.3          1 SAH301   0.0000
    15 O2'          7.4650    10.1530    10.9620 O.3          1 SAH301   0.0000
    16 C1'          7.8930     8.9380     8.8740 C.3          1 SAH301   0.0000
    17 N9           6.5540     8.9850     8.2570 N.pl3        1 SAH301   0.0000
    18 C8           5.4560     8.2180     8.4750 C.2          1 SAH301   0.0000
    19 N7           4.4330     8.6580     7.7080 N.2          1 SAH301   0.0000
    20 C5           4.8770     9.7210     7.0090 C.ar         1 SAH301   0.0000
    21 C6           4.2750    10.5670     6.1010 C.ar         1 SAH301   0.0000
    22 N6           3.0130    10.4060     5.7320 N.pl3        1 SAH301   0.0000
    23 N1           5.0010    11.5560     5.5410 N.ar         1 SAH301   0.0000
    24 C2           6.3240    11.7520     5.8790 C.ar         1 SAH301   0.0000
    25 N3           6.9170    10.9520     6.8130 N.ar         1 SAH301   0.0000
    26 C4           6.2040     9.9330     7.3430 C.ar         1 SAH301   0.0000
    27 H1          14.9905     6.8696     7.1867 H            1 SAH301   0.0000
    28 H2          13.7933     5.8059     7.5056 H            1 SAH301   0.0000
    29 HA          14.6687     7.8568     9.2493 H            1 SAH301   0.0000
    30 HB1         12.5335     7.5584     9.8496 H            1 SAH301   0.0000
    31 HB2         13.3913     6.6685    10.9167 H            1 SAH301   0.0000
    32 HG1         12.7490     4.7155     9.7161 H            1 SAH301   0.0000
    33 HG2         11.7857     5.6527     8.7886 H            1 SAH301   0.0000
    34 H5'1         8.6703     5.7974    10.3551 H            1 SAH301   0.0000
    35 H5'2         9.5601     5.4785     9.0235 H            1 SAH301   0.0000
    36 H4'         10.4774     7.7114     9.2057 H            1 SAH301   0.0000
    37 H3'          9.2468     7.8842    11.5875 H            1 SAH301   0.0000
    38 H12         10.0325    10.0472    11.4605 H            1 SAH301   0.0000
    39 H2'          7.1696     8.2067    10.6797 H            1 SAH301   0.0000
    40 H14          8.0926    10.8617    10.6396 H            1 SAH301   0.0000
    41 H1'          8.4209     9.7358     8.5827 H            1 SAH301   0.0000
    42 H16          5.4103     7.4445     9.1072 H            1 SAH301   0.0000
    43 H17          2.6011    11.0340     5.0717 H            1 SAH301   0.0000
    44 H18          2.4722     9.6564     6.1137 H            1 SAH301   0.0000
    45 H19          6.8492    12.4807     5.4395 H            1 SAH301   0.0000
    46 H20         13.4529     7.3953     7.3489 H            1 SAH301   0.0000
@<TRIPOS>BOND
     1    1    2       1
     2    2    3       1
     3    2    6       1
     4    3    4       1
     5    4    5       1
     6    5    9       1
     7    6    7      ar
     8    6    8      ar
     9    9   10       1
    10   10   11       1
    11   10   12       1
    12   11   16       1
    13   12   13       1
    14   12   14       1
    15   14   15       1
    16   14   16       1
    17   16   17       1
    18   17   18       1
    19   17   26       1
    20   18   19       2
    21   19   20       1
    22   20   21      ar
    23   20   26      ar
    24   21   22       1
    25   21   23      ar
    26   23   24      ar
    27   24   25      ar
    28   25   26      ar
    29    1   27       1
    30    1   28       1
    31    2   29       1
    32    3   30       1
    33    3   31       1
    34    4   32       1
    35    4   33       1
    36    1   46       1
    37    9   34       1
    38    9   35       1
    39   10   36       1
    40   12   37       1
    41   13   38       1
    42   14   39       1
    43   15   40       1
    44   16   41       1
    45   18   42       1
    46   22   43       1
    47   22   44       1
    48   24   45       1
@<TRIPOS>SUBSTRUCTURE
     1 SAH301      1 GROUP             4 A     SAH     0 **** SAH A 301
