@<TRIPOS>MOLECULE
3a5z_KAA_3_ligand
   60    62     1     0     0
SMALL
NO_CHARGES


@<TRIPOS>ATOM
     1 NZ          90.5290   106.1120   -15.0960 N.4          1 KAA992   1.0000
     2 CE          90.5800   105.3360   -16.3430 C.3          1 KAA992   0.0000
     3 CD          89.2160   104.6930   -16.5970 C.3          1 KAA992   0.0000
     4 CG          88.1210   105.7510   -16.7500 C.3          1 KAA992   0.0000
     5 CB          86.7930   105.0760   -17.0960 C.3          1 KAA992   0.0000
     6 CA          85.6620   106.0900   -17.2800 C.3          1 KAA992   0.0000
     7 N           85.4020   106.7730   -16.0050 N.4          1 KAA992   1.0000
     8 C           84.4050   105.3420   -17.7240 C.2          1 KAA992   0.0000
     9 O           83.4890   105.1590   -16.9200 O.2          1 KAA992   0.0000
    10 N8          84.3850   104.8840   -18.9720 N.am         1 KAA992   0.0000
    11 S1          82.9290   104.2510   -19.3380 S.o2         1 KAA992   0.0000
    12 O1S         81.8570   105.2030   -18.9010 O.2          1 KAA992   0.0000
    13 O2S         82.8540   104.0680   -20.8250 O.2          1 KAA992   0.0000
    14 O5'         82.7320   102.9970   -18.6750 O.3          1 KAA992   0.0000
    15 C5'         83.5960   101.8810   -18.9090 C.3          1 KAA992   0.0000
    16 C4'         82.8090   100.6520   -19.3720 C.3          1 KAA992   0.0000
    17 O4'         81.7790   100.2820   -18.4430 O.3          1 KAA992   0.0000
    18 C3'         82.0360   100.9300   -20.6610 C.3          1 KAA992   0.0000
    19 O3'         82.9380   100.8350   -21.7680 O.3          1 KAA992   0.0000
    20 C2'         81.1310    99.7000   -20.6620 C.3          1 KAA992   0.0000
    21 O2'         81.8790    98.5550   -21.0790 O.3          1 KAA992   0.0000
    22 C1'         80.7730    99.5610   -19.1800 C.3          1 KAA992   0.0000
    23 N9          79.4750   100.2030   -18.8780 N.pl3        1 KAA992   0.0000
    24 C8          79.2750   101.5090   -18.7200 C.2          1 KAA992   0.0000
    25 N7          78.0190   101.7260   -18.3350 N.2          1 KAA992   0.0000
    26 C5          77.4120   100.5450   -18.2500 C.ar         1 KAA992   0.0000
    27 C4          78.3340    99.5720   -18.6120 C.ar         1 KAA992   0.0000
    28 N3          77.9600    98.2880   -18.6280 N.ar         1 KAA992   0.0000
    29 C2          76.7280    97.9390   -18.2940 C.ar         1 KAA992   0.0000
    30 N1          75.8290    98.8350   -17.9320 N.ar         1 KAA992   0.0000
    31 C6          76.1340   100.1420   -17.8950 C.ar         1 KAA992   0.0000
    32 N6          75.2440   101.0360   -17.4770 N.pl3        1 KAA992   0.0000
    33 HZ1         91.4205   106.5331   -14.9287 H            1 KAA992   0.0000
    34 HZ2         89.8330   106.8256   -15.1757 H            1 KAA992   0.0000
    35 HE1         91.2758   104.6222   -16.2636 H            1 KAA992   0.0000
    36 HE2         90.8100   105.9424   -17.1042 H            1 KAA992   0.0000
    37 HD1         88.9881   104.0978   -15.8264 H            1 KAA992   0.0000
    38 HD2         89.2632   104.1498   -17.4353 H            1 KAA992   0.0000
    39 HG1         88.3717   106.3849   -17.4817 H            1 KAA992   0.0000
    40 HG2         88.0237   106.2546   -15.8915 H            1 KAA992   0.0000
    41 HB1         86.5473   104.4498   -16.3561 H            1 KAA992   0.0000
    42 HB2         86.9051   104.5605   -17.9455 H            1 KAA992   0.0000
    43 HA          85.9195   106.7604   -17.9759 H            1 KAA992   0.0000
    44 H12         84.6627   107.4354   -16.1264 H            1 KAA992   0.0000
    45 H13         85.1366   106.1001   -15.3145 H            1 KAA992   0.0000
    46 H14         85.1605   104.9229   -19.6022 H            1 KAA992   0.0000
    47 H5'1        84.0771   101.6587   -18.0610 H            1 KAA992   0.0000
    48 H5'2        84.2606   102.1265   -19.6147 H            1 KAA992   0.0000
    49 H4'         83.4327    99.8827   -19.5103 H            1 KAA992   0.0000
    50 H3'         81.5294   101.7919   -20.6385 H            1 KAA992   0.0000
    51 H19         82.9650   101.7097   -22.2520 H            1 KAA992   0.0000
    52 H2'         80.3184    99.8382   -21.2282 H            1 KAA992   0.0000
    53 H21         81.8188    98.4614   -22.0728 H            1 KAA992   0.0000
    54 H1'         80.7609    98.5983   -18.9096 H            1 KAA992   0.0000
    55 H23         79.9632   102.2193   -18.8679 H            1 KAA992   0.0000
    56 H24         76.4718    96.9726   -18.3164 H            1 KAA992   0.0000
    57 H25         74.3228   100.7427   -17.2215 H            1 KAA992   0.0000
    58 H26         75.4955   102.0020   -17.4180 H            1 KAA992   0.0000
    59 HZ3         90.2988   105.5054   -14.3351 H            1 KAA992   0.0000
    60 H28         86.2297   107.2482   -15.7066 H            1 KAA992   0.0000
@<TRIPOS>BOND
     1    1    2       1
     2    2    3       1
     3    3    4       1
     4    4    5       1
     5    5    6       1
     6    6    7       1
     7    6    8       1
     8    8    9       2
     9    8   10      am
    10   10   11       1
    11   11   12       2
    12   11   13       2
    13   11   14       1
    14   14   15       1
    15   15   16       1
    16   16   17       1
    17   16   18       1
    18   17   22       1
    19   18   19       1
    20   18   20       1
    21   20   21       1
    22   20   22       1
    23   22   23       1
    24   23   24       1
    25   23   27       1
    26   24   25       2
    27   25   26       1
    28   26   27      ar
    29   26   31      ar
    30   27   28      ar
    31   28   29      ar
    32   29   30      ar
    33   30   31      ar
    34   31   32       1
    35    1   33       1
    36    1   34       1
    37    2   35       1
    38    2   36       1
    39    3   37       1
    40    3   38       1
    41    4   39       1
    42    4   40       1
    43    5   41       1
    44    5   42       1
    45    6   43       1
    46    7   44       1
    47    7   45       1
    48   10   46       1
    49   15   47       1
    50   15   48       1
    51   16   49       1
    52   18   50       1
    53   19   51       1
    54   20   52       1
    55   21   53       1
    56   22   54       1
    57   24   55       1
    58   29   56       1
    59   32   57       1
    60   32   58       1
    61    1   59       1
    62    7   60       1
@<TRIPOS>SUBSTRUCTURE
     1 KAA992      1 GROUP             4 E     KAA     0 **** KAA E 992
