@<TRIPOS>MOLECULE
1n5i_TMP_1_ligand
   34    35     1     0     0
SMALL
NO_CHARGES


@<TRIPOS>ATOM
     1 P           26.2600    14.9800     8.1180 P.3          1 TMP217   0.0000
     2 O1P         27.0390    15.0070     9.5140 O.co2        1 TMP217   0.0000
     3 O2P         24.9510    16.0630     8.1510 O.co2        1 TMP217  -1.0000
     4 O3P         27.2780    15.3960     6.8620 O.co2        1 TMP217  -1.0000
     5 O5'         25.7160    13.5100     7.8960 O.3          1 TMP217   0.0000
     6 C5'         25.0370    13.1540     6.7330 C.3          1 TMP217   0.0000
     7 C4'         23.6210    12.5810     7.0260 C.3          1 TMP217   0.0000
     8 O4'         23.5420    11.1720     7.3630 O.3          1 TMP217   0.0000
     9 C3'         22.6710    13.0730     8.1700 C.3          1 TMP217   0.0000
    10 O3'         21.1930    13.1070     7.9640 O.3          1 TMP217   0.0000
    11 C2'         23.3320    12.2930     9.3100 C.3          1 TMP217   0.0000
    12 C1'         23.3430    10.9000     8.7470 C.3          1 TMP217   0.0000
    13 N1          24.3920     9.9540     9.1470 N.pl3        1 TMP217   0.0000
    14 C2          23.9550     8.6670     9.3860 C.2          1 TMP217   0.0000
    15 O2          22.6950     8.3580     9.2540 O.2          1 TMP217   0.0000
    16 N3          24.8200     7.6940     9.7780 N.pl3        1 TMP217   0.0000
    17 C4          26.1390     7.9860     9.9170 C.2          1 TMP217   0.0000
    18 O4          26.9630     7.0190    10.2880 O.2          1 TMP217   0.0000
    19 C5          26.6170     9.2820     9.6810 C.2          1 TMP217   0.0000
    20 C5M         28.0870     9.5520     9.8480 C.3          1 TMP217   0.0000
    21 C6          25.7060    10.2710     9.2820 C.2          1 TMP217   0.0000
    22 H5'1        25.5705    12.4603     6.2491 H            1 TMP217   0.0000
    23 H5'2        24.9423    13.9647     6.1553 H            1 TMP217   0.0000
    24 H4'         23.1031    12.6875     6.1772 H            1 TMP217   0.0000
    25 H3'         22.9303    14.0260     8.3269 H            1 TMP217   0.0000
    26 H5          20.9770    13.7134     7.1988 H            1 TMP217   0.0000
    27 H2'1        22.7916    12.3440    10.1498 H            1 TMP217   0.0000
    28 H2'2        24.2589    12.6225     9.4896 H            1 TMP217   0.0000
    29 H1'         22.4455    10.4792     8.8791 H            1 TMP217   0.0000
    30 H9          24.4871     6.7693     9.9628 H            1 TMP217   0.0000
    31 H5M1        28.2743    10.5134     9.6465 H            1 TMP217   0.0000
    32 H5M2        28.3583     9.3496    10.7890 H            1 TMP217   0.0000
    33 H5M3        28.6059     8.9725     9.2195 H            1 TMP217   0.0000
    34 H13         26.0213    11.2021     9.0984 H            1 TMP217   0.0000
@<TRIPOS>BOND
     1    1    2      ar
     2    1    3      ar
     3    1    4      ar
     4    1    5       1
     5    5    6       1
     6    6    7       1
     7    7    8       1
     8    7    9       1
     9    8   12       1
    10    9   10       1
    11    9   11       1
    12   11   12       1
    13   12   13       1
    14   13   14       1
    15   13   21       1
    16   14   15       2
    17   14   16       1
    18   16   17       1
    19   17   18       2
    20   17   19       1
    21   19   20       1
    22   19   21       2
    23   21   34       1
    24   20   33       1
    25    6   22       1
    26    6   23       1
    27    7   24       1
    28    9   25       1
    29   10   26       1
    30   11   27       1
    31   11   28       1
    32   12   29       1
    33   16   30       1
    34   20   31       1
    35   20   32       1
@<TRIPOS>SUBSTRUCTURE
     1 TMP217      1 GROUP             4 A     TMP     0 **** TMP A 217
