@<TRIPOS>MOLECULE
3vgl_ANP_1_ligand
   41    43     1     0     0
SMALL
NO_CHARGES


@<TRIPOS>ATOM
     1 PB           9.6870    23.1490    17.0930 P.3          1 ANP325   0.0000
     2 O1B          8.9210    24.2060    16.2910 O.co2        1 ANP325   0.0000
     3 O2B          9.2390    21.7300    16.8970 O.co2        1 ANP325  -1.0000
     4 N3B          9.5710    23.5140    18.7640 N.3          1 ANP325   0.0000
     5 PA          12.2480    24.3370    16.3360 P.3          1 ANP325   0.0000
     6 O1A         13.6440    23.7110    16.2690 O.co2        1 ANP325   0.0000
     7 O2A         11.9820    25.4810    17.2650 O.co2        1 ANP325  -1.0000
     8 O3A         11.2120    23.1260    16.5950 O.3          1 ANP325   0.0000
     9 O5'         11.8010    24.8150    14.8660 O.3          1 ANP325   0.0000
    10 C5'         11.8970    23.9520    13.7280 C.3          1 ANP325   0.0000
    11 C4'         12.0590    24.7900    12.4780 C.3          1 ANP325   0.0000
    12 O4'         13.1480    25.7100    12.6390 O.3          1 ANP325   0.0000
    13 C3'         12.4050    23.9110    11.3020 C.3          1 ANP325   0.0000
    14 O3'         11.9530    24.5860    10.1250 O.3          1 ANP325   0.0000
    15 C2'         13.9110    23.9190    11.3530 C.3          1 ANP325   0.0000
    16 O2'         14.4890    23.6390    10.0900 O.3          1 ANP325   0.0000
    17 C1'         14.2530    25.3250    11.8240 C.3          1 ANP325   0.0000
    18 N9          15.4280    25.3240    12.7140 N.pl3        1 ANP325   0.0000
    19 C8          15.5400    24.7700    13.9350 C.2          1 ANP325   0.0000
    20 N7          16.7910    24.9910    14.4520 N.2          1 ANP325   0.0000
    21 C5          17.4510    25.7210    13.5360 C.ar         1 ANP325   0.0000
    22 C6          18.8160    26.3040    13.3930 C.ar         1 ANP325   0.0000
    23 N6          19.7410    26.1670    14.3780 N.pl3        1 ANP325   0.0000
    24 N1          19.0770    27.0020    12.2670 N.ar         1 ANP325   0.0000
    25 C2          18.1920    27.1680    11.2540 C.ar         1 ANP325   0.0000
    26 N3          16.9420    26.6520    11.3160 N.ar         1 ANP325   0.0000
    27 C4          16.5570    25.9450    12.3970 C.ar         1 ANP325   0.0000
    28 H3B1        10.0700    22.8260    19.2909 H            1 ANP325   0.0000
    29 H3B2         9.9656    24.4166    18.9362 H            1 ANP325   0.0000
    30 H5'1        11.0657    23.4009    13.6555 H            1 ANP325   0.0000
    31 H5'2        12.6884    23.3495    13.8313 H            1 ANP325   0.0000
    32 H4'         11.2140    25.2913    12.2919 H            1 ANP325   0.0000
    33 H3'         12.0236    22.9905    11.3862 H            1 ANP325   0.0000
    34 H7          12.6837    25.1726     9.7758 H            1 ANP325   0.0000
    35 H2'         14.2295    23.2509    12.0255 H            1 ANP325   0.0000
    36 H9          14.6270    24.4938     9.5897 H            1 ANP325   0.0000
    37 H1'         14.3765    25.9504    11.0536 H            1 ANP325   0.0000
    38 H11         14.8121    24.2669    14.4009 H            1 ANP325   0.0000
    39 H12         20.6522    26.5638    14.2670 H            1 ANP325   0.0000
    40 H13         19.5109    25.6693    15.2143 H            1 ANP325   0.0000
    41 H14         18.4686    27.6831    10.4427 H            1 ANP325   0.0000
@<TRIPOS>BOND
     1    1    2      ar
     2    1    3      ar
     3    1    4       1
     4    1    8       1
     5    5    6      ar
     6    5    7      ar
     7    5    8       1
     8    5    9       1
     9    9   10       1
    10   10   11       1
    11   11   12       1
    12   11   13       1
    13   12   17       1
    14   13   14       1
    15   13   15       1
    16   15   16       1
    17   15   17       1
    18   17   18       1
    19   18   19       1
    20   18   27       1
    21   19   20       2
    22   20   21       1
    23   21   22      ar
    24   21   27      ar
    25   22   23       1
    26   22   24      ar
    27   24   25      ar
    28   25   26      ar
    29   26   27      ar
    30   25   41       1
    31    4   28       1
    32    4   29       1
    33   23   40       1
    34   10   30       1
    35   10   31       1
    36   11   32       1
    37   13   33       1
    38   14   34       1
    39   15   35       1
    40   16   36       1
    41   17   37       1
    42   19   38       1
    43   23   39       1
@<TRIPOS>SUBSTRUCTURE
     1 ANP325      1 GROUP             4 A     ANP     0 **** ANP A 325
