@<TRIPOS>MOLECULE
3l8k_ADP_2_ligand
   39    41     1     0     0
SMALL
NO_CHARGES


@<TRIPOS>ATOM
     1 PB          41.4530    40.4290    37.4060 P.3          1 ADP465   0.0000
     2 O1B         40.0790    40.4130    36.7170 O.co2        1 ADP465   0.0000
     3 O2B         42.4460    41.2640    36.6360 O.co2        1 ADP465  -1.0000
     4 O3B         41.3150    40.6840    38.8880 O.co2        1 ADP465  -1.0000
     5 PA          42.6380    38.0090    36.2350 P.3          1 ADP465   0.0000
     6 O1A         41.8420    38.2270    34.9490 O.co2        1 ADP465   0.0000
     7 O2A         42.8310    36.6190    36.7620 O.co2        1 ADP465  -1.0000
     8 O3A         42.0610    38.9140    37.4410 O.3          1 ADP465   0.0000
     9 O5'         44.0770    38.6570    35.9720 O.3          1 ADP465   0.0000
    10 C5'         45.2090    38.3220    36.7770 C.3          1 ADP465   0.0000
    11 C4'         46.4800    38.2440    35.9460 C.3          1 ADP465   0.0000
    12 O4'         47.5690    38.3860    36.8550 O.3          1 ADP465   0.0000
    13 C3'         46.6470    36.9070    35.2180 C.3          1 ADP465   0.0000
    14 O3'         46.7860    37.1320    33.8180 O.3          1 ADP465   0.0000
    15 C2'         47.9060    36.2690    35.8090 C.3          1 ADP465   0.0000
    16 O2'         48.7160    35.6430    34.8030 O.3          1 ADP465   0.0000
    17 C1'         48.6070    37.4690    36.4760 C.3          1 ADP465   0.0000
    18 N9          49.5290    37.1440    37.6110 N.pl3        1 ADP465   0.0000
    19 C8          49.3350    36.2760    38.6370 C.2          1 ADP465   0.0000
    20 N7          50.4120    36.2800    39.4610 N.2          1 ADP465   0.0000
    21 C5          51.2990    37.1450    38.9500 C.ar         1 ADP465   0.0000
    22 C6          52.6570    37.6250    39.2860 C.ar         1 ADP465   0.0000
    23 N6          53.2550    37.1540    40.3920 N.pl3        1 ADP465   0.0000
    24 N1          53.2540    38.5510    38.4980 N.ar         1 ADP465   0.0000
    25 C2          52.6660    39.0440    37.4070 C.ar         1 ADP465   0.0000
    26 N3          51.4370    38.6420    37.0390 N.ar         1 ADP465   0.0000
    27 C4          50.7200    37.7170    37.7420 C.ar         1 ADP465   0.0000
    28 H5'1        45.0488    37.4349    37.2099 H            1 ADP465   0.0000
    29 H5'2        45.3244    39.0212    37.4825 H            1 ADP465   0.0000
    30 H4'         46.4952    38.9925    35.2830 H            1 ADP465   0.0000
    31 H3'         45.8546    36.3225    35.3924 H            1 ADP465   0.0000
    32 H5          47.5904    37.7019    33.6502 H            1 ADP465   0.0000
    33 H2'         47.6505    35.5971    36.5042 H            1 ADP465   0.0000
    34 H7          48.9993    36.3265    34.1302 H            1 ADP465   0.0000
    35 H1'         49.1549    37.9193    35.7710 H            1 ADP465   0.0000
    36 H9          48.5170    35.7154    38.7662 H            1 ADP465   0.0000
    37 H10         54.1731    37.4667    40.6358 H            1 ADP465   0.0000
    38 H11         52.7823    36.4905    40.9720 H            1 ADP465   0.0000
    39 H12         53.1472    39.7238    36.8536 H            1 ADP465   0.0000
@<TRIPOS>BOND
     1    1    2      ar
     2    1    3      ar
     3    1    4      ar
     4    1    8       1
     5    5    6      ar
     6    5    7      ar
     7    5    8       1
     8    5    9       1
     9    9   10       1
    10   10   11       1
    11   11   12       1
    12   11   13       1
    13   12   17       1
    14   13   14       1
    15   13   15       1
    16   15   16       1
    17   15   17       1
    18   17   18       1
    19   18   19       1
    20   18   27       1
    21   19   20       2
    22   20   21       1
    23   21   22      ar
    24   21   27      ar
    25   22   23       1
    26   22   24      ar
    27   24   25      ar
    28   25   26      ar
    29   26   27      ar
    30   25   39       1
    31   23   38       1
    32   23   37       1
    33   10   28       1
    34   10   29       1
    35   11   30       1
    36   13   31       1
    37   14   32       1
    38   15   33       1
    39   16   34       1
    40   17   35       1
    41   19   36       1
@<TRIPOS>SUBSTRUCTURE
     1 ADP465      1 GROUP             4 B     ADP     0 **** ADP B 465
