@<TRIPOS>MOLECULE
2zzc_FAD_5_ligand
   84    89     1     0     0
SMALL
NO_CHARGES


@<TRIPOS>ATOM
     1 PA         -19.8550    50.5950   -43.8900 P.3          1 FAD900   0.0000
     2 O1A        -19.5300    49.2210   -44.1430 O.co2        1 FAD900   0.0000
     3 O2A        -20.7580    51.1070   -45.0830 O.co2        1 FAD900  -1.0000
     4 O5B        -20.7310    50.5960   -42.5390 O.3          1 FAD900   0.0000
     5 C5B        -21.2560    51.9000   -42.2310 C.3          1 FAD900   0.0000
     6 C4B        -22.5720    51.7200   -41.4390 C.3          1 FAD900   0.0000
     7 O4B        -22.7530    52.8610   -40.6030 O.3          1 FAD900   0.0000
     8 C3B        -23.7210    51.6850   -42.4150 C.3          1 FAD900   0.0000
     9 O3B        -24.5030    50.5170   -42.1020 O.3          1 FAD900   0.0000
    10 C2B        -24.4850    52.9810   -42.1240 C.3          1 FAD900   0.0000
    11 O2B        -25.8480    52.9030   -42.4020 O.3          1 FAD900   0.0000
    12 C1B        -24.1890    53.1780   -40.6720 C.3          1 FAD900   0.0000
    13 N9A        -24.3550    54.5580   -40.2110 N.pl3        1 FAD900   0.0000
    14 C8A        -23.9590    55.6870   -40.8430 C.2          1 FAD900   0.0000
    15 N7A        -24.2220    56.7020   -40.1160 N.2          1 FAD900   0.0000
    16 C5A        -24.8080    56.3030   -38.9640 C.ar         1 FAD900   0.0000
    17 C6A        -25.2890    56.9520   -37.7850 C.ar         1 FAD900   0.0000
    18 N6A        -25.1880    58.3330   -37.6490 N.pl3        1 FAD900   0.0000
    19 N1A        -25.8310    56.1990   -36.8080 N.ar         1 FAD900   0.0000
    20 C2A        -25.9230    54.8710   -36.9130 C.ar         1 FAD900   0.0000
    21 N3A        -25.4780    54.2400   -37.9730 N.ar         1 FAD900   0.0000
    22 C4A        -24.9170    54.9160   -39.0150 C.ar         1 FAD900   0.0000
    23 N1         -14.6250    46.4980   -50.6500 N.2          1 FAD900   0.0000
    24 C2         -13.8500    45.4170   -50.7390 C.2          1 FAD900   0.0000
    25 O2         -12.8870    45.3580   -50.0350 O.2          1 FAD900   0.0000
    26 N3         -14.1040    44.3960   -51.5780 N.pl3        1 FAD900   0.0000
    27 C4         -15.1910    44.3900   -52.4180 C.2          1 FAD900   0.0000
    28 O4         -15.4010    43.4620   -53.1620 O.2          1 FAD900   0.0000
    29 C4X        -16.1120    45.5650   -52.3850 C.2          1 FAD900   0.0000
    30 N5         -17.2010    45.6590   -53.1620 N.2          1 FAD900   0.0000
    31 C5X        -18.0300    46.7340   -53.1100 C.ar         1 FAD900   0.0000
    32 C6         -19.1800    46.7910   -53.9460 C.ar         1 FAD900   0.0000
    33 C7         -20.0390    47.8910   -53.8750 C.ar         1 FAD900   0.0000
    34 C7M        -21.2900    47.9500   -54.7650 C.3          1 FAD900   0.0000
    35 C8         -19.7690    48.9420   -52.9850 C.ar         1 FAD900   0.0000
    36 C8M        -20.7090    50.1070   -52.9110 C.3          1 FAD900   0.0000
    37 C9         -18.6470    48.9200   -52.1580 C.ar         1 FAD900   0.0000
    38 C9A        -17.7520    47.8320   -52.1890 C.ar         1 FAD900   0.0000
    39 N10        -16.5840    47.7740   -51.3310 N.pl3        1 FAD900   0.0000
    40 C10        -15.7510    46.6480   -51.4230 C.2          1 FAD900   0.0000
    41 C1'        -16.2480    48.8590   -50.3440 C.3          1 FAD900   0.0000
    42 C2'        -16.5650    48.2890   -48.9330 C.3          1 FAD900   0.0000
    43 O2'        -17.9280    47.8540   -48.8890 O.3          1 FAD900   0.0000
    44 C3'        -16.3260    49.3390   -47.9000 C.3          1 FAD900   0.0000
    45 O3'        -14.9850    49.7240   -47.9650 O.3          1 FAD900   0.0000
    46 C4'        -16.5980    48.8510   -46.4940 C.3          1 FAD900   0.0000
    47 O4'        -17.9170    48.3500   -46.4090 O.3          1 FAD900   0.0000
    48 C5'        -16.4370    50.0030   -45.5000 C.3          1 FAD900   0.0000
    49 O5'        -16.9180    49.5470   -44.2260 O.3          1 FAD900   0.0000
    50 P          -17.2120    50.7660   -43.2190 P.3          1 FAD900   0.0000
    51 O1P        -17.3790    50.1990   -41.8450 O.co2        1 FAD900   0.0000
    52 O2P        -15.9680    51.8030   -43.1780 O.co2        1 FAD900  -1.0000
    53 O3P        -18.5250    51.5400   -43.7610 O.3          1 FAD900   0.0000
    54 H5B1       -21.4369    52.4002   -43.0778 H            1 FAD900   0.0000
    55 H5B2       -20.5957    52.4083   -41.6782 H            1 FAD900   0.0000
    56 H4B        -22.5452    50.8822   -40.8936 H            1 FAD900   0.0000
    57 H3B        -23.3942    51.6606   -43.3598 H            1 FAD900   0.0000
    58 H5         -24.4301    50.3192   -41.1245 H            1 FAD900   0.0000
    59 H2B        -24.0812    53.7297   -42.6498 H            1 FAD900   0.0000
    60 H7         -26.3691    53.0770   -41.5664 H            1 FAD900   0.0000
    61 H1B        -24.7222    52.5463   -40.1093 H            1 FAD900   0.0000
    62 H8A        -23.5257    55.7208   -41.7436 H            1 FAD900   0.0000
    63 H6A1       -25.5268    58.7800   -36.8211 H            1 FAD900   0.0000
    64 H6A2       -24.7766    58.8786   -38.3791 H            1 FAD900   0.0000
    65 H2A        -26.3391    54.3478   -36.1693 H            1 FAD900   0.0000
    66 H13        -13.4800    43.6147   -51.5904 H            1 FAD900   0.0000
    67 H14        -19.3732    46.0451   -54.5834 H            1 FAD900   0.0000
    68 H7M1       -21.7864    48.7995   -54.5863 H            1 FAD900   0.0000
    69 H7M2       -21.0168    47.9195   -55.7265 H            1 FAD900   0.0000
    70 H7M3       -21.8810    47.1694   -54.5615 H            1 FAD900   0.0000
    71 H8M1       -20.3748    50.7625   -52.2338 H            1 FAD900   0.0000
    72 H8M2       -20.7619    50.5500   -53.8060 H            1 FAD900   0.0000
    73 H8M3       -21.6176    49.7858   -52.6439 H            1 FAD900   0.0000
    74 H21        -18.4755    49.6842   -51.5363 H            1 FAD900   0.0000
    75 H1'1       -16.8042    49.6710   -50.5211 H            1 FAD900   0.0000
    76 H1'2       -15.2792    49.0977   -50.4101 H            1 FAD900   0.0000
    77 H2'        -15.9659    47.5090   -48.7523 H            1 FAD900   0.0000
    78 H25        -18.2793    47.9520   -47.9579 H            1 FAD900   0.0000
    79 H3'        -16.9064    50.1302   -48.0930 H            1 FAD900   0.0000
    80 H27        -14.8989    50.6804   -47.6859 H            1 FAD900   0.0000
    81 H4'        -15.9517    48.1231   -46.2651 H            1 FAD900   0.0000
    82 H29        -18.4291    48.8732   -45.7278 H            1 FAD900   0.0000
    83 H5'1       -16.9707    50.7924   -45.8034 H            1 FAD900   0.0000
    84 H5'2       -15.4732    50.2598   -45.4287 H            1 FAD900   0.0000
@<TRIPOS>BOND
     1    1    2      ar
     2    1    3      ar
     3    1    4       1
     4    1   53       1
     5    4    5       1
     6    5    6       1
     7    6    7       1
     8    6    8       1
     9    7   12       1
    10    8    9       1
    11    8   10       1
    12   10   11       1
    13   10   12       1
    14   12   13       1
    15   13   14       1
    16   13   22       1
    17   14   15       2
    18   15   16       1
    19   16   17      ar
    20   16   22      ar
    21   17   18       1
    22   17   19      ar
    23   19   20      ar
    24   20   21      ar
    25   21   22      ar
    26   23   24       1
    27   23   40       2
    28   24   25       2
    29   24   26       1
    30   26   27       1
    31   27   28       2
    32   27   29       1
    33   29   30       2
    34   29   40       1
    35   30   31       1
    36   31   32      ar
    37   31   38      ar
    38   32   33      ar
    39   33   34       1
    40   33   35      ar
    41   35   36       1
    42   35   37      ar
    43   37   38      ar
    44   38   39       1
    45   39   40       1
    46   39   41       1
    47   41   42       1
    48   42   43       1
    49   42   44       1
    50   44   45       1
    51   44   46       1
    52   46   47       1
    53   46   48       1
    54   48   49       1
    55   49   50       1
    56   50   51      ar
    57   50   52      ar
    58   50   53       1
    59   48   84       1
    60    5   54       1
    61    5   55       1
    62    6   56       1
    63    8   57       1
    64    9   58       1
    65   10   59       1
    66   11   60       1
    67   12   61       1
    68   14   62       1
    69   18   63       1
    70   18   64       1
    71   20   65       1
    72   26   66       1
    73   32   67       1
    74   34   68       1
    75   34   69       1
    76   34   70       1
    77   36   71       1
    78   36   72       1
    79   36   73       1
    80   37   74       1
    81   41   75       1
    82   41   76       1
    83   42   77       1
    84   43   78       1
    85   44   79       1
    86   45   80       1
    87   46   81       1
    88   47   82       1
    89   48   83       1
@<TRIPOS>SUBSTRUCTURE
     1 FAD900      1 GROUP             4 C     FAD     0 **** FAD C 900
