@<TRIPOS>MOLECULE
1ppl_1Z7_1_ligand
   91    91     1     0     0
SMALL
NO_CHARGES


@<TRIPOS>ATOM
     1 CA          15.9420     4.1260    17.4870 C.3          1 1Z7324   0.0000
     2 CB          14.6430     3.6540    18.1870 C.3          1 1Z7324   0.0000
     3 CG1         14.3150     4.8410    19.0870 C.3          1 1Z7324   0.0000
     4 CG2         13.4600     3.5320    17.2680 C.3          1 1Z7324   0.0000
     5 C           17.0680     4.4480    18.4850 C.2          1 1Z7324   0.0000
     6 O           17.1950     3.6450    19.4790 O.2          1 1Z7324   0.0000
     7 N           17.8820     5.4490    18.3940 N.am         1 1Z7324   0.0000
     8 CA1         19.0160     5.6420    19.2870 C.3          1 1Z7324   0.0000
     9 C1          18.9210     6.9900    19.9870 C.2          1 1Z7324   0.0000
    10 O1          18.1180     7.8830    19.5600 O.2          1 1Z7324   0.0000
    11 CB1         20.2910     5.6330    18.3540 C.3          1 1Z7324   0.0000
    12 CG11        20.4610     4.2100    17.8010 C.3          1 1Z7324   0.0000
    13 CG21        20.2290     6.5910    17.1820 C.3          1 1Z7324   0.0000
    14 N1          19.6870     7.0590    21.0610 N.am         1 1Z7324   0.0000
    15 CA2         19.6540     8.3980    21.7970 C.3          1 1Z7324   0.0000
    16 C2          21.1900     8.6890    21.9870 C.2          1 1Z7324   0.0000
    17 O2          21.7700     8.0720    22.8770 O.2          1 1Z7324   0.0000
    18 CB2         18.9620     8.2550    23.1180 C.3          1 1Z7324   0.0000
    19 CG12        18.8480     9.6640    23.8070 C.3          1 1Z7324   0.0000
    20 CG22        17.5350     7.7840    22.8850 C.3          1 1Z7324   0.0000
    21 CA3         23.1040     9.9030    21.1450 C.3          1 1Z7324   0.0000
    22 CB3         23.8890     9.3340    19.9240 C.3          1 1Z7324   0.0000
    23 CG          23.7360     7.8390    19.5170 C.3          1 1Z7324   0.0000
    24 CD1         24.1350     7.6160    18.0600 C.3          1 1Z7324   0.0000
    25 CD2         24.1760     6.8870    20.5840 C.3          1 1Z7324   0.0000
    26 N2          21.7090     9.5240    21.1100 N.am         1 1Z7324   0.0000
    27 P           23.3210    11.6840    21.2810 P.3          1 1Z7324   0.0000
    28 O11         24.7520    12.0150    21.1000 O.co2        1 1Z7324   0.0000
    29 O21         22.4510    12.2770    20.2720 O.co2        1 1Z7324  -1.0000
    30 CA4         23.5860    13.0410    23.4660 C.3          1 1Z7324   0.0000
    31 CB4         22.5800    14.0210    24.1290 C.3          1 1Z7324   0.0000
    32 CG3         21.6400    13.4480    25.1720 C.ar         1 1Z7324   0.0000
    33 CD11        21.9520    13.5400    26.5200 C.ar         1 1Z7324   0.0000
    34 CD21        20.4620    12.7950    24.7960 C.ar         1 1Z7324   0.0000
    35 CE1         21.0920    12.9630    27.4590 C.ar         1 1Z7324   0.0000
    36 CE2         19.6880    12.1630    25.7410 C.ar         1 1Z7324   0.0000
    37 CZ          19.9430    12.2840    27.0690 C.ar         1 1Z7324   0.0000
    38 C3          24.3990    12.3760    24.6000 C.2          1 1Z7324   0.0000
    39 CS          25.9890    12.6670    26.3900 C.3          1 1Z7324   0.0000
    40 OP          22.9280    11.9630    22.7000 O.3          1 1Z7324   0.0000
    41 OS          25.1990    13.2320    25.3720 O.3          1 1Z7324   0.0000
    42 O3          24.3280    11.1650    24.8400 O.2          1 1Z7324   0.0000
    43 HA1         15.7391     4.9490    16.9565 H            1 1Z7324   0.0000
    44 HA2         16.2559     3.4022    16.8725 H            1 1Z7324   0.0000
    45 HB          14.7896     2.8177    18.7153 H            1 1Z7324   0.0000
    46 HG11        13.4783     4.6492    19.6000 H            1 1Z7324   0.0000
    47 HG12        15.0696     4.9940    19.7251 H            1 1Z7324   0.0000
    48 HG13        14.1821     5.6580    18.5259 H            1 1Z7324   0.0000
    49 HG21        12.6636     3.2245    17.7888 H            1 1Z7324   0.0000
    50 HG22        13.2652     4.4219    16.8555 H            1 1Z7324   0.0000
    51 HG23        13.6641     2.8684    16.5482 H            1 1Z7324   0.0000
    52 H10         17.7246     6.1247    17.6738 H            1 1Z7324   0.0000
    53 H11         19.0657     4.9011    19.9568 H            1 1Z7324   0.0000
    54 HB1         21.0928     5.8579    18.9076 H            1 1Z7324   0.0000
    55 H13         21.2637     4.1775    17.2055 H            1 1Z7324   0.0000
    56 H14         20.5826     3.5699    18.5596 H            1 1Z7324   0.0000
    57 H15         19.6474     3.9563    17.2779 H            1 1Z7324   0.0000
    58 H16         21.0717     6.5198    16.6483 H            1 1Z7324   0.0000
    59 H17         19.4472     6.3593    16.6031 H            1 1Z7324   0.0000
    60 H18         20.1272     7.5263    17.5210 H            1 1Z7324   0.0000
    61 H19         20.2478     6.2909    21.3700 H            1 1Z7324   0.0000
    62 H20         19.2203     9.1050    21.2384 H            1 1Z7324   0.0000
    63 HB2         19.4538     7.6132    23.7064 H            1 1Z7324   0.0000
    64 H22         18.3860     9.5675    24.6886 H            1 1Z7324   0.0000
    65 H23         19.7634    10.0403    23.9498 H            1 1Z7324   0.0000
    66 H24         18.3221    10.2802    23.2207 H            1 1Z7324   0.0000
    67 H25         17.0683     7.6869    23.7641 H            1 1Z7324   0.0000
    68 H26         17.0505     8.4540    22.3226 H            1 1Z7324   0.0000
    69 H27         17.5478     6.9014    22.4151 H            1 1Z7324   0.0000
    70 HA3         23.5002     9.4940    21.9670 H            1 1Z7324   0.0000
    71 HB31        24.8598     9.4822    20.1126 H            1 1Z7324   0.0000
    72 HB32        23.6170     9.8770    19.1296 H            1 1Z7324   0.0000
    73 HG          22.7442     7.7123    19.4993 H            1 1Z7324   0.0000
    74 HD11        24.0264     6.6492    17.8289 H            1 1Z7324   0.0000
    75 HD12        23.5503     8.1685    17.4660 H            1 1Z7324   0.0000
    76 HD13        25.0897     7.8843    17.9310 H            1 1Z7324   0.0000
    77 HD21        24.0537     5.9476    20.2637 H            1 1Z7324   0.0000
    78 HD22        25.1409     7.0446    20.7941 H            1 1Z7324   0.0000
    79 HD23        23.6275     7.0325    21.4074 H            1 1Z7324   0.0000
    80 H38         21.1202     9.9074    20.3984 H            1 1Z7324   0.0000
    81 HA4         24.2030    13.5498    22.8656 H            1 1Z7324   0.0000
    82 HB41        22.0182    14.4137    23.4009 H            1 1Z7324   0.0000
    83 HB42        23.1109    14.7458    24.5681 H            1 1Z7324   0.0000
    84 H42         22.7816    14.0131    26.8166 H            1 1Z7324   0.0000
    85 H43         20.1813    12.7875    23.8362 H            1 1Z7324   0.0000
    86 HE1         21.3079    13.0403    28.4324 H            1 1Z7324   0.0000
    87 HE2         18.9175    11.5998    25.4423 H            1 1Z7324   0.0000
    88 HZ          19.3210    11.8951    27.7486 H            1 1Z7324   0.0000
    89 HS1         26.5020    13.3895    26.8536 H            1 1Z7324   0.0000
    90 HS2         25.3993    12.2010    27.0497 H            1 1Z7324   0.0000
    91 HS3         26.6271    12.0090    25.9903 H            1 1Z7324   0.0000
@<TRIPOS>BOND
     1    1    2       1
     2    1    5       1
     3    2    3       1
     4    2    4       1
     5    5    6       2
     6    5    7      am
     7    7    8       1
     8    8    9       1
     9    8   11       1
    10    9   10       2
    11    9   14      am
    12   11   12       1
    13   11   13       1
    14   14   15       1
    15   15   16       1
    16   15   18       1
    17   16   17       2
    18   16   26      am
    19   18   19       1
    20   18   20       1
    21   21   22       1
    22   21   26       1
    23   21   27       1
    24   22   23       1
    25   23   24       1
    26   23   25       1
    27   27   28      ar
    28   27   29      ar
    29   27   40       1
    30   30   31       1
    31   30   38       1
    32   30   40       1
    33   31   32       1
    34   32   33      ar
    35   32   34      ar
    36   33   35      ar
    37   34   36      ar
    38   35   37      ar
    39   36   37      ar
    40   38   41       1
    41   38   42       2
    42   39   41       1
    43    1   43       1
    44    1   44       1
    45    2   45       1
    46    3   46       1
    47    3   47       1
    48    3   48       1
    49    4   49       1
    50    4   50       1
    51    4   51       1
    52    7   52       1
    53    8   53       1
    54   11   54       1
    55   12   55       1
    56   12   56       1
    57   12   57       1
    58   13   58       1
    59   13   59       1
    60   13   60       1
    61   14   61       1
    62   15   62       1
    63   18   63       1
    64   19   64       1
    65   19   65       1
    66   19   66       1
    67   20   67       1
    68   20   68       1
    69   20   69       1
    70   21   70       1
    71   22   71       1
    72   22   72       1
    73   23   73       1
    74   24   74       1
    75   24   75       1
    76   24   76       1
    77   25   77       1
    78   25   78       1
    79   25   79       1
    80   26   80       1
    81   39   91       1
    82   30   81       1
    83   31   82       1
    84   31   83       1
    85   33   84       1
    86   34   85       1
    87   35   86       1
    88   36   87       1
    89   37   88       1
    90   39   89       1
    91   39   90       1
@<TRIPOS>SUBSTRUCTURE
     1 1Z7324      1 GROUP             4 E     1Z7     0 **** 1Z7 E 324
