@<TRIPOS>MOLECULE
4bl1_ANP_1_ligand
   44    46     1     0     0
SMALL
NO_CHARGES


@<TRIPOS>ATOM
     1 C2          15.9090     7.2470     2.6020 C.ar         1 ANP1000   0.0000
     2 C4          15.6100     8.7160     4.5780 C.ar         1 ANP1000   0.0000
     3 C5          16.1910     7.6630     5.4470 C.ar         1 ANP1000   0.0000
     4 C6          16.5830     6.4070     4.7550 C.ar         1 ANP1000   0.0000
     5 C8          15.6800     9.4380     6.6810 C.2          1 ANP1000   0.0000
     6 N1          16.4650     6.2490     3.3370 N.ar         1 ANP1000   0.0000
     7 O1B         15.2290    14.9000    12.2620 O.co2        1 ANP1000   0.0000
     8 O2'         12.3200    11.4190     4.2060 O.3          1 ANP1000   0.0000
     9 O1G         12.2630    15.4220    13.5340 O.co2        1 ANP1000   0.0000
    10 O3'         11.5590    11.5970     6.9770 O.3          1 ANP1000   0.0000
    11 C3'         12.9390    11.4000     6.6310 C.3          1 ANP1000   0.0000
    12 C4'         13.7740    12.6250     6.6820 C.3          1 ANP1000   0.0000
    13 C5'         14.4350    12.9410     8.0250 C.3          1 ANP1000   0.0000
    14 O5'         14.7970    11.7280     8.6780 O.3          1 ANP1000   0.0000
    15 PA          14.4050    11.4850    10.2580 P.3          1 ANP1000   0.0000
    16 O1A         12.8790    11.4930    10.4500 O.co2        1 ANP1000   0.0000
    17 O3A         14.9830    12.9390    10.7720 O.3          1 ANP1000   0.0000
    18 O2A         15.0590    10.2630    10.9640 O.co2        1 ANP1000  -1.0000
    19 O2B         16.2310    12.6220    13.3680 O.co2        1 ANP1000  -1.0000
    20 O2G         12.0890    14.0700    11.3760 O.co2        1 ANP1000  -1.0000
    21 O3G         11.3380    12.9170    13.7000 O.co2        1 ANP1000  -1.0000
    22 C2'         13.1490    10.8420     5.1940 C.3          1 ANP1000   0.0000
    23 C1'         14.6190    11.1020     4.9160 C.3          1 ANP1000   0.0000
    24 O4'         14.7520    12.2940     5.6940 O.3          1 ANP1000   0.0000
    25 N9          15.3170     9.8120     5.3690 N.pl3        1 ANP1000   0.0000
    26 N7          16.2150     8.1420     6.7640 N.2          1 ANP1000   0.0000
    27 N6          17.0500     5.3640     5.5530 N.pl3        1 ANP1000   0.0000
    28 N3          15.5420     8.4430     3.2260 N.ar         1 ANP1000   0.0000
    29 PB          15.1390    13.4090    12.3880 P.3          1 ANP1000   0.0000
    30 N3B         13.7290    13.0270    13.2950 N.3          1 ANP1000   0.0000
    31 PG          12.3010    13.9240    12.8670 P.3          1 ANP1000   0.0000
    32 H1          15.7630     7.1268     1.6200 H            1 ANP1000   0.0000
    33 H2          15.5673    10.0371     7.4737 H            1 ANP1000   0.0000
    34 H2'         11.4549    11.7017     4.6203 H            1 ANP1000   0.0000
    35 H3'         11.3303    11.0324     7.7700 H            1 ANP1000   0.0000
    36 H5          13.3248    10.7396     7.2752 H            1 ANP1000   0.0000
    37 H4'         13.2380    13.4119     6.3761 H            1 ANP1000   0.0000
    38 H5'1        13.7939    13.4496     8.5997 H            1 ANP1000   0.0000
    39 H5'2        15.2544    13.4930     7.8707 H            1 ANP1000   0.0000
    40 H9          12.9941     9.8542     5.2069 H            1 ANP1000   0.0000
    41 H1'         14.7797    11.2811     3.9454 H            1 ANP1000   0.0000
    42 H11         17.3260     4.4989     5.1341 H            1 ANP1000   0.0000
    43 H12         17.1091     5.4808     6.5444 H            1 ANP1000   0.0000
    44 H3B         13.5330    12.0549    13.1659 H            1 ANP1000   0.0000
@<TRIPOS>BOND
     1    1    6      ar
     2    1   28      ar
     3    2    3      ar
     4    2   25       1
     5    2   28      ar
     6    3    4      ar
     7    3   26       1
     8    4    6      ar
     9    4   27       1
    10    5   25       1
    11    5   26       2
    12    7   29      ar
    13    8   22       1
    14    9   31      ar
    15   10   11       1
    16   11   12       1
    17   11   22       1
    18   12   13       1
    19   12   24       1
    20   13   14       1
    21   14   15       1
    22   15   16      ar
    23   15   17       1
    24   15   18      ar
    25   17   29       1
    26   19   29      ar
    27   20   31      ar
    28   21   31      ar
    29   22   23       1
    30   23   24       1
    31   23   25       1
    32   29   30       1
    33   30   31       1
    34    1   32       1
    35    5   33       1
    36    8   34       1
    37   30   44       1
    38   10   35       1
    39   11   36       1
    40   12   37       1
    41   13   38       1
    42   13   39       1
    43   27   43       1
    44   27   42       1
    45   23   41       1
    46   22   40       1
@<TRIPOS>SUBSTRUCTURE
     1 ANP1000     1 GROUP             4 A     ANP     0 **** ANP A1000
