@<TRIPOS>MOLECULE
3l8a_PLP_2_ligand
   26    26     1     0     0
SMALL
NO_CHARGES


@<TRIPOS>ATOM
     1 N1          -8.4430    18.3950    37.6950 N.ar         1 PLP388   1.0000
     2 C2          -9.7170    18.8650    37.8770 C.ar         1 PLP388   0.0000
     3 C2A        -10.0460    19.5560    39.1660 C.3          1 PLP388   0.0000
     4 C3         -10.6710    18.7010    36.8890 C.ar         1 PLP388   0.0000
     5 O3         -11.9310    19.1850    37.1180 O.3          1 PLP388   0.0000
     6 C4         -10.3000    18.0490    35.7080 C.ar         1 PLP388   0.0000
     7 C4A        -11.1780    18.0350    34.5040 C.3          1 PLP388   0.0000
     8 C5          -8.9980    17.5740    35.5540 C.ar         1 PLP388   0.0000
     9 C6          -8.0730    17.7460    36.5520 C.ar         1 PLP388   0.0000
    10 C5A         -8.5010    16.8260    34.3440 C.3          1 PLP388   0.0000
    11 O4P         -8.7930    17.4250    33.1310 O.3          1 PLP388   0.0000
    12 P           -7.9410    16.8400    31.9060 P.3          1 PLP388   0.0000
    13 O1P         -7.3810    15.4980    32.2990 O.co2        1 PLP388   0.0000
    14 O2P         -6.7980    17.7820    31.6140 O.co2        1 PLP388  -1.0000
    15 O3P         -8.9240    16.7240    30.7690 O.co2        1 PLP388  -1.0000
    16 H2A1       -11.0042    19.8420    39.1558 H            1 PLP388   0.0000
    17 H2A2        -9.8937    18.9280    39.9292 H            1 PLP388   0.0000
    18 H2A3        -9.4596    20.3589    39.2729 H            1 PLP388   0.0000
    19 H4         -12.6409    19.0807    36.4215 H            1 PLP388   0.0000
    20 H4A1       -10.7322    17.5192    33.7724 H            1 PLP388   0.0000
    21 H4A2       -12.0504    17.6030    34.7326 H            1 PLP388   0.0000
    22 H4A3       -11.3405    18.9734    34.1991 H            1 PLP388   0.0000
    23 H8          -7.1406    17.4009    36.4441 H            1 PLP388   0.0000
    24 H5A1        -8.9151    15.9158    34.3492 H            1 PLP388   0.0000
    25 H5A2        -7.5074    16.7405    34.4175 H            1 PLP388   0.0000
    26 H11         -7.7661    18.5308    38.4184 H            1 PLP388   0.0000
@<TRIPOS>BOND
     1    1    2      ar
     2    1    9      ar
     3    2    3       1
     4    2    4      ar
     5    4    5       1
     6    4    6      ar
     7    6    7       1
     8    6    8      ar
     9    8    9      ar
    10    8   10       1
    11   10   11       1
    12   11   12       1
    13   12   13      ar
    14   12   14      ar
    15   12   15      ar
    16    3   16       1
    17    3   17       1
    18    3   18       1
    19    5   19       1
    20    7   20       1
    21    7   21       1
    22    7   22       1
    23    9   23       1
    24   10   24       1
    25   10   25       1
    26    1   26       1
@<TRIPOS>SUBSTRUCTURE
     1 PLP388      1 GROUP             4 B     PLP     0 **** PLP B 388
