@<TRIPOS>MOLECULE
1piv_W71_1_ligand
   51    53     1     0     0
SMALL
NO_CHARGES


@<TRIPOS>ATOM
     1 O1          29.9560    51.4470   114.8980 O.2          1 W71303   0.0000
     2 N2          31.1450    51.1150   115.4360 N.2          1 W71303   0.0000
     3 C3          31.6630    52.2200   116.0020 C.2          1 W71303   0.0000
     4 C31         33.0020    52.2560   116.7200 C.3          1 W71303   0.0000
     5 C4          30.8100    53.2500   115.8360 C.2          1 W71303   0.0000
     6 C5          29.7300    52.8470   115.1430 C.2          1 W71303   0.0000
     7 C1C         28.5980    53.7500   114.6930 C.3          1 W71303   0.0000
     8 C2C         29.1130    54.7720   113.7030 C.3          1 W71303   0.0000
     9 C3C         28.0660    55.7680   113.2540 C.3          1 W71303   0.0000
    10 C4C         28.8670    56.9180   112.6900 C.3          1 W71303   0.0000
    11 C5C         27.9920    58.0660   112.2910 C.3          1 W71303   0.0000
    12 C6C         28.8590    59.2860   112.0310 C.3          1 W71303   0.0000
    13 C7C         27.9730    60.4470   111.6380 C.3          1 W71303   0.0000
    14 O1B         26.9750    60.6590   112.6370 O.3          1 W71303   0.0000
    15 C1B         26.1040    61.6860   112.4370 C.ar         1 W71303   0.0000
    16 C2B         26.1870    62.5450   111.3390 C.ar         1 W71303   0.0000
    17 C3B         25.2760    63.5830   111.1980 C.ar         1 W71303   0.0000
    18 C4B         24.2750    63.7820   112.1500 C.ar         1 W71303   0.0000
    19 C5B         24.1840    62.9220   113.2520 C.ar         1 W71303   0.0000
    20 C6B         25.0980    61.8770   113.3930 C.ar         1 W71303   0.0000
    21 C2A         23.3990    64.8430   112.0210 C.2          1 W71303   0.0000
    22 N3A         23.4590    65.6990   111.0040 N.2          1 W71303   0.0000
    23 C4A         22.4810    66.7480   111.1120 C.3          1 W71303   0.0000
    24 C5A         22.1020    66.6230   112.5890 C.3          1 W71303   0.0000
    25 O1A         22.3970    65.2370   112.9390 O.3          1 W71303   0.0000
    26 H1          33.1752    53.1817   117.0562 H            1 W71303   0.0000
    27 H2          32.9841    51.6193   117.4909 H            1 W71303   0.0000
    28 H3          33.7278    51.9906   116.0853 H            1 W71303   0.0000
    29 H4          30.9583    54.1779   116.1779 H            1 W71303   0.0000
    30 H1C1        28.2153    54.2220   115.4872 H            1 W71303   0.0000
    31 H1C2        27.8865    53.1976   114.2587 H            1 W71303   0.0000
    32 H2C1        29.4531    54.2871   112.8973 H            1 W71303   0.0000
    33 H2C2        29.8639    55.2751   114.1309 H            1 W71303   0.0000
    34 H3C1        27.5085    56.0696   114.0275 H            1 W71303   0.0000
    35 H3C2        27.4751    55.3696   112.5525 H            1 W71303   0.0000
    36 H4C1        29.3683    56.5989   111.8857 H            1 W71303   0.0000
    37 H4C2        29.5151    57.2316   113.3840 H            1 W71303   0.0000
    38 H5C1        27.3454    58.2657   113.0272 H            1 W71303   0.0000
    39 H5C2        27.4884    57.8300   111.4599 H            1 W71303   0.0000
    40 H6C1        29.5012    59.0889   111.2902 H            1 W71303   0.0000
    41 H6C2        29.3676    59.5184   112.8600 H            1 W71303   0.0000
    42 H7C1        27.5298    60.2447   110.7647 H            1 W71303   0.0000
    43 H7C2        28.5300    61.2724   111.5458 H            1 W71303   0.0000
    44 H2B         26.9032    62.4123   110.6538 H            1 W71303   0.0000
    45 H3B         25.3375    64.1930   110.4080 H            1 W71303   0.0000
    46 H5B         23.4664    63.0565   113.9354 H            1 W71303   0.0000
    47 H6B         25.0346    61.2623   114.1792 H            1 W71303   0.0000
    48 H4A1        21.6963    66.5844   110.5142 H            1 W71303   0.0000
    49 H4A2        22.8756    67.6435   110.9064 H            1 W71303   0.0000
    50 H5A1        21.1303    66.8194   112.7203 H            1 W71303   0.0000
    51 H5A2        22.6470    67.2497   113.1459 H            1 W71303   0.0000
@<TRIPOS>BOND
     1    1    2       1
     2    1    6       1
     3    2    3       2
     4    3    4       1
     5    3    5       1
     6    5    6       2
     7    6    7       1
     8    7    8       1
     9    8    9       1
    10    9   10       1
    11   10   11       1
    12   11   12       1
    13   12   13       1
    14   13   14       1
    15   14   15       1
    16   15   16      ar
    17   15   20      ar
    18   16   17      ar
    19   17   18      ar
    20   18   19      ar
    21   18   21       1
    22   19   20      ar
    23   21   22       2
    24   21   25       1
    25   22   23       1
    26   23   24       1
    27   24   25       1
    28    4   26       1
    29    4   27       1
    30    4   28       1
    31    5   29       1
    32    7   30       1
    33    7   31       1
    34    8   32       1
    35    8   33       1
    36    9   34       1
    37    9   35       1
    38   10   36       1
    39   10   37       1
    40   11   38       1
    41   11   39       1
    42   12   40       1
    43   12   41       1
    44   13   42       1
    45   13   43       1
    46   16   44       1
    47   17   45       1
    48   19   46       1
    49   20   47       1
    50   23   48       1
    51   23   49       1
    52   24   50       1
    53   24   51       1
@<TRIPOS>SUBSTRUCTURE
     1 W71303      1 GROUP             4 1     W71     0 **** W71 1 303
