@<TRIPOS>MOLECULE
1ppj_ANY_2_ligand
   73    74     1     0     0
SMALL
NO_CHARGES


@<TRIPOS>ATOM
     1 C1          58.9380   105.2070    81.5540 C.ar         1 ANY2002   0.0000
     2 C2          59.8870   106.2770    81.2310 C.ar         1 ANY2002   0.0000
     3 C3          61.1610   106.3220    81.9270 C.ar         1 ANY2002   0.0000
     4 C4          61.4820   105.3210    82.8720 C.ar         1 ANY2002   0.0000
     5 C5          60.5810   104.2900    83.1820 C.ar         1 ANY2002   0.0000
     6 C6          59.3120   104.2040    82.5230 C.ar         1 ANY2002   0.0000
     7 C7          58.3560   103.0890    82.8600 C.2          1 ANY2002   0.0000
     8 N1          59.4700   107.2310    80.2670 N.am         1 ANY2002   0.0000
     9 N2          57.1540   103.0640    82.1690 N.am         1 ANY2002   0.0000
    10 O1          57.7620   105.2150    80.8690 O.3          1 ANY2002   0.0000
    11 O3          58.6360   102.2030    83.7090 O.2          1 ANY2002   0.0000
    12 C9          56.1430   102.0680    82.3430 C.3          1 ANY2002   0.0000
    13 C10         54.9370   102.5010    83.3020 C.3          1 ANY2002   0.0000
    14 O4          55.3830   100.2530    81.0290 O.3          1 ANY2002   0.0000
    15 O5          53.7450   101.6660    83.0960 O.3          1 ANY2002   0.0000
    16 C11         54.2780    99.6530    80.3160 C.3          1 ANY2002   0.0000
    17 C12         53.4550    98.7850    81.3790 C.3          1 ANY2002   0.0000
    18 C13         52.7240    99.5700    82.5390 C.3          1 ANY2002   0.0000
    19 C14         53.7400   100.3000    83.4000 C.2          1 ANY2002   0.0000
    20 O6          54.5280    99.8600    84.2450 O.2          1 ANY2002   0.0000
    21 C15         51.8940    98.6230    83.4470 C.3          1 ANY2002   0.0000
    22 C16         51.0200    99.3650    84.4510 C.3          1 ANY2002   0.0000
    23 C20         55.5810   101.6210    80.9860 C.2          1 ANY2002   0.0000
    24 O7          55.3350   102.2780    79.9700 O.2          1 ANY2002   0.0000
    25 O8          52.4500    98.0480    80.6170 O.3          1 ANY2002   0.0000
    26 C21         52.4960    96.6520    80.5290 C.2          1 ANY2002   0.0000
    27 C22         51.3700    96.1290    79.6920 C.3          1 ANY2002   0.0000
    28 C26         54.4460   103.9310    83.1060 C.3          1 ANY2002   0.0000
    29 O9          53.3970    96.0320    81.1050 O.2          1 ANY2002   0.0000
    30 C27         54.8920    98.8250    79.2040 C.3          1 ANY2002   0.0000
    31 C23         50.2100    95.9820    80.6660 C.3          1 ANY2002   0.0000
    32 C17         50.4580    98.4030    85.4860 C.3          1 ANY2002   0.0000
    33 C8          60.1630   108.3360    79.7710 C.2          1 ANY2002   0.0000
    34 C25         51.4440    96.2540    78.1870 C.3          1 ANY2002   0.0000
    35 C18         49.7200    99.1420    86.5820 C.3          1 ANY2002   0.0000
    36 O2          61.3020   108.6290    80.1720 O.2          1 ANY2002   0.0000
    37 C19         48.6190    98.2870    87.1610 C.3          1 ANY2002   0.0000
    38 H1          61.8095   107.0594    81.7381 H            1 ANY2002   0.0000
    39 H2          62.3706   105.3478    83.3299 H            1 ANY2002   0.0000
    40 H3          60.8278   103.6081    83.8705 H            1 ANY2002   0.0000
    41 H4          58.5536   107.0925    79.8915 H            1 ANY2002   0.0000
    42 H5          56.9828   103.7913    81.5044 H            1 ANY2002   0.0000
    43 H6          57.5846   105.9258    80.1884 H            1 ANY2002   0.0000
    44 H7          56.5809   101.2711    82.7592 H            1 ANY2002   0.0000
    45 H8          55.2352   102.3969    84.2508 H            1 ANY2002   0.0000
    46 H9          53.6927   100.3656    79.9292 H            1 ANY2002   0.0000
    47 H10         54.0800    98.1238    81.7941 H            1 ANY2002   0.0000
    48 H11         52.1077   100.2434    82.1308 H            1 ANY2002   0.0000
    49 H12         52.5246    98.0324    83.9505 H            1 ANY2002   0.0000
    50 H13         51.3042    98.0622    82.8659 H            1 ANY2002   0.0000
    51 H14         50.2638    99.8048    83.9664 H            1 ANY2002   0.0000
    52 H15         51.5693   100.0610    84.9135 H            1 ANY2002   0.0000
    53 H16         51.6541    95.1709    79.7279 H            1 ANY2002   0.0000
    54 H17         53.6964   104.1161    83.7414 H            1 ANY2002   0.0000
    55 H18         55.1966   104.5681    83.2813 H            1 ANY2002   0.0000
    56 H19         54.1230   104.0467    82.1667 H            1 ANY2002   0.0000
    57 H20         54.1656    98.3850    78.6761 H            1 ANY2002   0.0000
    58 H21         55.4279    99.4185    78.6035 H            1 ANY2002   0.0000
    59 H22         55.4875    98.1255    79.5991 H            1 ANY2002   0.0000
    60 H23         49.4087    95.6332    80.1799 H            1 ANY2002   0.0000
    61 H24         50.4635    95.3431    81.3923 H            1 ANY2002   0.0000
    62 H25         49.9955    96.8731    81.0658 H            1 ANY2002   0.0000
    63 H26         51.2111    97.8856    85.8923 H            1 ANY2002   0.0000
    64 H27         49.8256    97.7729    85.0353 H            1 ANY2002   0.0000
    65 H28         59.7310   108.9078    79.0736 H            1 ANY2002   0.0000
    66 H29         50.6206    95.8597    77.7789 H            1 ANY2002   0.0000
    67 H30         51.5111    97.2196    77.9356 H            1 ANY2002   0.0000
    68 H31         52.2493    95.7654    77.8511 H            1 ANY2002   0.0000
    69 H32         49.3211    99.9769    86.2027 H            1 ANY2002   0.0000
    70 H33         50.3652    99.3807    87.3078 H            1 ANY2002   0.0000
    71 H34         48.1465    98.7948    87.8814 H            1 ANY2002   0.0000
    72 H35         47.9685    98.0480    86.4401 H            1 ANY2002   0.0000
    73 H36         49.0126    97.4518    87.5451 H            1 ANY2002   0.0000
@<TRIPOS>BOND
     1    1    2      ar
     2    1    6      ar
     3    1   10       1
     4    2    3      ar
     5    2    8       1
     6    3    4      ar
     7    4    5      ar
     8    5    6      ar
     9    6    7       1
    10    7    9      am
    11    7   11       2
    12    8   33      am
    13    9   12       1
    14   12   13       1
    15   12   23       1
    16   13   15       1
    17   13   28       1
    18   14   16       1
    19   14   23       1
    20   15   19       1
    21   16   17       1
    22   16   30       1
    23   17   18       1
    24   17   25       1
    25   18   19       1
    26   18   21       1
    27   19   20       2
    28   21   22       1
    29   22   32       1
    30   23   24       2
    31   25   26       1
    32   26   27       1
    33   26   29       2
    34   27   31       1
    35   27   34       1
    36   32   35       1
    37   33   36       2
    38   35   37       1
    39    3   38       1
    40    4   39       1
    41    5   40       1
    42    8   41       1
    43    9   42       1
    44   10   43       1
    45   12   44       1
    46   13   45       1
    47   16   46       1
    48   17   47       1
    49   18   48       1
    50   21   49       1
    51   21   50       1
    52   22   51       1
    53   22   52       1
    54   27   53       1
    55   28   54       1
    56   28   55       1
    57   28   56       1
    58   30   57       1
    59   30   58       1
    60   30   59       1
    61   31   60       1
    62   31   61       1
    63   31   62       1
    64   32   63       1
    65   32   64       1
    66   33   65       1
    67   34   66       1
    68   34   67       1
    69   34   68       1
    70   35   69       1
    71   35   70       1
    72   37   71       1
    73   37   72       1
    74   37   73       1
@<TRIPOS>SUBSTRUCTURE
     1 ANY2002     1 GROUP             4 C     ANY     0 **** ANY C2002
