@<TRIPOS>MOLECULE
3fpj_SAM_1_ligand
   50    52     1     0     0
SMALL
NO_CHARGES


@<TRIPOS>ATOM
     1 N           -0.2430    -0.3320    -8.0160 N.4          1 SAM301   1.0000
     2 CA          -1.2010    -0.1560    -9.1190 C.3          1 SAM301   0.0000
     3 C           -1.0600    -1.2960   -10.1310 C.2          1 SAM301   0.0000
     4 O           -0.0370    -1.1430   -10.8480 O.co2        1 SAM301   0.0000
     5 OXT         -1.8370    -2.3160   -10.2310 O.co2        1 SAM301  -1.0000
     6 CB          -0.9170     1.2350    -9.7470 C.3          1 SAM301   0.0000
     7 CG           0.5310     1.8130    -9.7960 C.3          1 SAM301   0.0000
     8 SD           0.6660     3.2200    -8.8900 S.3          1 SAM301   1.0000
     9 CE          -0.9350     3.7330    -8.7180 C.3          1 SAM301   0.0000
    10 C5'          1.4660     4.5930    -9.3530 C.3          1 SAM301   0.0000
    11 C4'          0.9210     5.3700   -10.5830 C.3          1 SAM301   0.0000
    12 O4'         -0.3970     5.9890   -10.7080 O.3          1 SAM301   0.0000
    13 C3'          1.9030     6.4780   -10.6290 C.3          1 SAM301   0.0000
    14 O3'          2.8700     5.9290   -11.5340 O.3          1 SAM301   0.0000
    15 C2'          1.1450     7.7440   -11.0790 C.3          1 SAM301   0.0000
    16 O2'          1.9700     8.3760   -12.0470 O.3          1 SAM301   0.0000
    17 C1'         -0.2540     7.2320   -11.4960 C.3          1 SAM301   0.0000
    18 N9          -1.3730     8.2000   -11.2340 N.pl3        1 SAM301   0.0000
    19 C8          -1.7230     8.8150    -9.9170 C.2          1 SAM301   0.0000
    20 N7          -2.9050     9.6680   -10.1530 N.2          1 SAM301   0.0000
    21 C5          -3.2910     9.5860   -11.5670 C.ar         1 SAM301   0.0000
    22 C6          -4.4220    10.1740   -12.4230 C.ar         1 SAM301   0.0000
    23 N6          -5.4010    11.0910   -11.9090 N.pl3        1 SAM301   0.0000
    24 N1          -4.4520     9.8030   -13.8460 N.ar         1 SAM301   0.0000
    25 C2          -3.4970     8.9030   -14.5000 C.ar         1 SAM301   0.0000
    26 N3          -2.4050     8.3020   -13.6600 N.ar         1 SAM301   0.0000
    27 C4          -2.3320     8.6340   -12.2440 C.ar         1 SAM301   0.0000
    28 H1          -0.3453     0.4182    -7.3628 H            1 SAM301   0.0000
    29 H2          -0.4210    -1.2016    -7.5554 H            1 SAM301   0.0000
    30 HA          -2.1297    -0.1626    -8.7481 H            1 SAM301   0.0000
    31 HB1         -1.4697     1.8950    -9.2381 H            1 SAM301   0.0000
    32 HB2         -1.2378     1.1908   -10.6931 H            1 SAM301   0.0000
    33 HG1          0.7678     2.0150   -10.7463 H            1 SAM301   0.0000
    34 HG2          1.1652     1.1307    -9.4323 H            1 SAM301   0.0000
    35 HE1         -0.9587     4.5781    -8.1839 H            1 SAM301   0.0000
    36 HE2         -1.3309     3.8984    -9.6213 H            1 SAM301   0.0000
    37 HE3         -1.4628     3.0261    -8.2471 H            1 SAM301   0.0000
    38 H5'1         2.4095     4.3333    -9.5586 H            1 SAM301   0.0000
    39 H5'2         1.4552     5.2211    -8.5749 H            1 SAM301   0.0000
    40 H4'          1.0673     4.8003   -11.3917 H            1 SAM301   0.0000
    41 H3'          2.3112     6.6189    -9.7270 H            1 SAM301   0.0000
    42 H15          3.6137     6.5845   -11.6651 H            1 SAM301   0.0000
    43 H2'          1.0436     8.3549   -10.2938 H            1 SAM301   0.0000
    44 H17          1.7420     8.0292   -12.9568 H            1 SAM301   0.0000
    45 H1'         -0.2414     7.0025   -12.4692 H            1 SAM301   0.0000
    46 H19         -1.2496     8.6760    -9.0472 H            1 SAM301   0.0000
    47 H20         -6.1181    11.4451   -12.5093 H            1 SAM301   0.0000
    48 H21         -5.3654    11.3752   -10.9509 H            1 SAM301   0.0000
    49 H22         -3.5700     8.6953   -15.4755 H            1 SAM301   0.0000
    50 H23          0.6883    -0.3322    -8.3802 H            1 SAM301   0.0000
@<TRIPOS>BOND
     1    1    2       1
     2    2    3       1
     3    2    6       1
     4    3    4      ar
     5    3    5      ar
     6    6    7       1
     7    7    8       1
     8    8    9       1
     9    8   10       1
    10   10   11       1
    11   11   12       1
    12   11   13       1
    13   12   17       1
    14   13   14       1
    15   13   15       1
    16   15   16       1
    17   15   17       1
    18   17   18       1
    19   18   19       1
    20   18   27       1
    21   19   20       2
    22   20   21       1
    23   21   22      ar
    24   21   27      ar
    25   22   23       1
    26   22   24      ar
    27   24   25      ar
    28   25   26      ar
    29   26   27      ar
    30    1   28       1
    31    1   29       1
    32    2   30       1
    33    1   50       1
    34    6   31       1
    35    6   32       1
    36    7   33       1
    37    7   34       1
    38    9   35       1
    39    9   36       1
    40    9   37       1
    41   10   38       1
    42   10   39       1
    43   11   40       1
    44   13   41       1
    45   14   42       1
    46   15   43       1
    47   16   44       1
    48   17   45       1
    49   19   46       1
    50   23   47       1
    51   23   48       1
    52   25   49       1
@<TRIPOS>SUBSTRUCTURE
     1 SAM301      1 GROUP             4 A     SAM     0 **** SAM A 301
