@<TRIPOS>MOLECULE
4f7i_NAD_2_ligand
   70    74     1     0     0
SMALL
NO_CHARGES


@<TRIPOS>ATOM
     1 PA          39.5390    11.3930    19.6390 P.3          1 NAD900   0.0000
     2 O1A         39.7700    10.1320    20.4760 O.co2        1 NAD900   0.0000
     3 O2A         40.6600    12.0290    18.8770 O.co2        1 NAD900  -1.0000
     4 O5B         38.8810    12.5210    20.5980 O.3          1 NAD900   0.0000
     5 C5B         37.6660    12.1090    21.1990 C.3          1 NAD900   0.0000
     6 C4B         37.4430    13.2070    22.2740 C.3          1 NAD900   0.0000
     7 O4B         38.3080    13.0690    23.4020 O.3          1 NAD900   0.0000
     8 C3B         37.6590    14.6490    21.7570 C.3          1 NAD900   0.0000
     9 O3B         36.7290    15.4010    22.5290 O.3          1 NAD900   0.0000
    10 C2B         39.1320    14.9540    22.1940 C.3          1 NAD900   0.0000
    11 O2B         39.4950    16.3520    22.1760 O.3          1 NAD900   0.0000
    12 C1B         39.2010    14.2270    23.5390 C.3          1 NAD900   0.0000
    13 N9A         40.6010    13.6840    23.7130 N.pl3        1 NAD900   0.0000
    14 C8A         41.2070    12.6330    23.0420 C.2          1 NAD900   0.0000
    15 N7A         42.4490    12.4430    23.4420 N.2          1 NAD900   0.0000
    16 C5A         42.7110    13.3970    24.3880 C.ar         1 NAD900   0.0000
    17 C6A         43.8260    13.7410    25.1770 C.ar         1 NAD900   0.0000
    18 N6A         45.0330    13.0380    25.0640 N.pl3        1 NAD900   0.0000
    19 N1A         43.6830    14.7730    26.0360 N.ar         1 NAD900   0.0000
    20 C2A         42.5640    15.4960    26.1900 C.ar         1 NAD900   0.0000
    21 N3A         41.4840    15.2420    25.4460 N.ar         1 NAD900   0.0000
    22 C4A         41.5280    14.2120    24.5480 C.ar         1 NAD900   0.0000
    23 O3          38.4560    10.7960    18.5590 O.3          1 NAD900   0.0000
    24 PN          37.4950    11.5010    17.4940 P.3          1 NAD900   0.0000
    25 O1N         36.3600    10.4660    17.4320 O.co2        1 NAD900   0.0000
    26 O2N         37.1710    12.9310    17.8740 O.co2        1 NAD900  -1.0000
    27 O5D         38.3500    11.3680    16.1390 O.3          1 NAD900   0.0000
    28 C5D         39.3060    12.4320    15.9270 C.3          1 NAD900   0.0000
    29 C4D         40.3620    11.9420    14.8770 C.3          1 NAD900   0.0000
    30 O4D         41.2160    10.8570    15.3910 O.3          1 NAD900   0.0000
    31 C3D         39.6800    11.3740    13.6030 C.3          1 NAD900   0.0000
    32 O3D         40.4840    11.7280    12.4650 O.3          1 NAD900   0.0000
    33 C2D         39.6910     9.8350    13.8890 C.3          1 NAD900   0.0000
    34 O2D         39.6710     9.0300    12.7140 O.3          1 NAD900   0.0000
    35 C1D         41.0920     9.6720    14.5460 C.3          1 NAD900   0.0000
    36 N1N         41.3570     8.5760    15.4570 N.ar         1 NAD900   1.0000
    37 C2N         42.6080     8.0530    15.3720 C.ar         1 NAD900   0.0000
    38 C3N         42.9960     7.0560    16.2840 C.ar         1 NAD900   0.0000
    39 C7N         44.3910     6.5090    16.1840 C.2          1 NAD900   0.0000
    40 O7N         45.2160     7.0240    15.4290 O.2          1 NAD900   0.0000
    41 N7N         44.7370     5.4820    17.0260 N.am         1 NAD900   0.0000
    42 C4N         42.0730     6.5740    17.2980 C.ar         1 NAD900   0.0000
    43 C5N         40.7450     7.1710    17.3540 C.ar         1 NAD900   0.0000
    44 C6N         40.4710     8.2020    16.4270 C.ar         1 NAD900   0.0000
    45 H5B1        37.7566    11.2052    21.6172 H            1 NAD900   0.0000
    46 H5B2        36.9190    12.0954    20.5343 H            1 NAD900   0.0000
    47 H4B         36.4998    13.1339    22.5981 H            1 NAD900   0.0000
    48 H3B         37.5149    14.7388    20.7715 H            1 NAD900   0.0000
    49 H5          36.4188    16.1911    22.0003 H            1 NAD900   0.0000
    50 H2B         39.7402    14.4757    21.5605 H            1 NAD900   0.0000
    51 H7          38.9691    16.8239    21.4683 H            1 NAD900   0.0000
    52 H1B         38.9321    14.8191    24.2987 H            1 NAD900   0.0000
    53 H8A         40.7558    12.0842    22.3383 H            1 NAD900   0.0000
    54 H6A1        45.8158    13.2942    25.6311 H            1 NAD900   0.0000
    55 H6A2        45.1115    12.2802    24.4163 H            1 NAD900   0.0000
    56 H2A         42.5379    16.2312    26.8673 H            1 NAD900   0.0000
    57 H5D1        39.7630    12.6527    16.7886 H            1 NAD900   0.0000
    58 H5D2        38.8367    13.2444    15.5809 H            1 NAD900   0.0000
    59 H4D         40.9417    12.7142    14.6167 H            1 NAD900   0.0000
    60 H3D         38.7459    11.7182    13.5079 H            1 NAD900   0.0000
    61 H17         39.8977    11.8295    11.6613 H            1 NAD900   0.0000
    62 H2D         38.9600     9.5764    14.5205 H            1 NAD900   0.0000
    63 H19         40.4761     9.2334    12.1568 H            1 NAD900   0.0000
    64 H1D         41.7968     9.6934    13.8369 H            1 NAD900   0.0000
    65 H2N         43.2443     8.3730    14.6701 H            1 NAD900   0.0000
    66 H7N1        45.6573     5.0926    16.9878 H            1 NAD900   0.0000
    67 H7N2        44.0688     5.1231    17.6777 H            1 NAD900   0.0000
    68 H4N         42.3413     5.8541    17.9381 H            1 NAD900   0.0000
    69 H5N         40.0606     6.8660    18.0163 H            1 NAD900   0.0000
    70 H6N         39.5928     8.6770    16.4835 H            1 NAD900   0.0000
@<TRIPOS>BOND
     1    1    2      ar
     2    1    3      ar
     3    1    4       1
     4    1   23       1
     5    4    5       1
     6    5    6       1
     7    6    7       1
     8    6    8       1
     9    7   12       1
    10    8    9       1
    11    8   10       1
    12   10   11       1
    13   10   12       1
    14   12   13       1
    15   13   14       1
    16   13   22       1
    17   14   15       2
    18   15   16       1
    19   16   17      ar
    20   16   22      ar
    21   17   18       1
    22   17   19      ar
    23   19   20      ar
    24   20   21      ar
    25   21   22      ar
    26   23   24       1
    27   24   25      ar
    28   24   26      ar
    29   24   27       1
    30   27   28       1
    31   28   29       1
    32   29   30       1
    33   29   31       1
    34   30   35       1
    35   31   32       1
    36   31   33       1
    37   33   34       1
    38   33   35       1
    39   35   36       1
    40   36   37      ar
    41   36   44      ar
    42   37   38      ar
    43   38   39       1
    44   38   42      ar
    45   39   40       2
    46   39   41      am
    47   42   43      ar
    48   43   44      ar
    49   44   70       1
    50    5   45       1
    51    5   46       1
    52    6   47       1
    53    8   48       1
    54    9   49       1
    55   10   50       1
    56   11   51       1
    57   12   52       1
    58   14   53       1
    59   18   54       1
    60   18   55       1
    61   20   56       1
    62   43   69       1
    63   28   57       1
    64   28   58       1
    65   29   59       1
    66   31   60       1
    67   32   61       1
    68   33   62       1
    69   34   63       1
    70   35   64       1
    71   37   65       1
    72   41   66       1
    73   41   67       1
    74   42   68       1
@<TRIPOS>SUBSTRUCTURE
     1 NAD900      1 GROUP             4 B     NAD     0 **** NAD B 900
