@<TRIPOS>MOLECULE
4bcn_T9N_1_ligand
   38    40     1     0     0
SMALL
NO_CHARGES


@<TRIPOS>ATOM
     1 C01          4.3890    21.8710    18.8380 C.3          1 T9N1299   0.0000
     2 N02          4.2010    20.5840    19.4460 N.pl3        1 T9N1299   0.0000
     3 C03          4.9920    20.4840    20.6460 C.2          1 T9N1299   0.0000
     4 N04          6.0130    19.6360    20.8270 N.2          1 T9N1299   0.0000
     5 C05          6.9310    19.9390    21.8340 C.2          1 T9N1299   0.0000
     6 C06          7.9580    18.9660    22.3250 C.3          1 T9N1299   0.0000
     7 C07          6.8810    21.3610    22.1470 C.2          1 T9N1299   0.0000
     8 C08          7.7970    22.2180    22.9770 C.ar         1 T9N1299   0.0000
     9 N09          7.2680    23.0940    23.8910 N.ar         1 T9N1299   0.0000
    10 C10          7.9310    23.9570    24.7160 C.ar         1 T9N1299   0.0000
    11 N11          7.2860    24.8700    25.6120 N.pl3        1 T9N1299   0.0000
    12 C12          6.0260    25.5000    25.3010 C.ar         1 T9N1299   0.0000
    13 C13          5.3380    25.2210    24.1640 C.ar         1 T9N1299   0.0000
    14 C14          4.0140    25.9160    23.8970 C.ar         1 T9N1299   0.0000
    15 O15          3.2970    25.6610    22.7480 O.3          1 T9N1299   0.0000
    16 C16          3.5230    26.8160    24.7950 C.ar         1 T9N1299   0.0000
    17 C17          4.2720    27.1180    26.0330 C.ar         1 T9N1299   0.0000
    18 C18          5.4700    26.4910    26.2810 C.ar         1 T9N1299   0.0000
    19 N19          9.2410    23.8860    24.5640 N.ar         1 T9N1299   0.0000
    20 C20          9.8740    23.0660    23.6970 C.ar         1 T9N1299   0.0000
    21 C21          9.1950    22.1770    22.8340 C.ar         1 T9N1299   0.0000
    22 C22          9.8800    21.2920    21.8530 C.1          1 T9N1299   0.0000
    23 N23         10.3840    20.6160    21.0910 N.1          1 T9N1299   0.0000
    24 S24          5.2030    21.7650    21.7900 S.3          1 T9N1299   0.0000
    25 H1           3.8365    21.9308    18.0066 H            1 T9N1299   0.0000
    26 H2           4.1073    22.5862    19.4776 H            1 T9N1299   0.0000
    27 H3           5.3542    21.9924    18.6062 H            1 T9N1299   0.0000
    28 H4           3.6078    19.8625    19.0888 H            1 T9N1299   0.0000
    29 H5           8.5050    19.3935    23.0447 H            1 T9N1299   0.0000
    30 H6           7.5010    18.1552    22.6908 H            1 T9N1299   0.0000
    31 H7           8.5538    18.6995    21.5674 H            1 T9N1299   0.0000
    32 H8           7.7256    25.0784    26.4857 H            1 T9N1299   0.0000
    33 H9           5.7011    24.5614    23.5059 H            1 T9N1299   0.0000
    34 H10          2.4270    26.1272    22.5877 H            1 T9N1299   0.0000
    35 H11          2.6523    27.2740    24.6156 H            1 T9N1299   0.0000
    36 H12          3.9075    27.7781    26.6898 H            1 T9N1299   0.0000
    37 H13          5.9741    26.6966    27.1198 H            1 T9N1299   0.0000
    38 H14         10.8732    23.0894    23.6644 H            1 T9N1299   0.0000
@<TRIPOS>BOND
     1    1    2       1
     2    2    3       1
     3    3    4       2
     4    3   24       1
     5    4    5       1
     6    5    6       1
     7    5    7       2
     8    7    8       1
     9    7   24       1
    10    8    9      ar
    11    8   21      ar
    12    9   10      ar
    13   10   11       1
    14   10   19      ar
    15   11   12       1
    16   12   13      ar
    17   12   18      ar
    18   13   14      ar
    19   14   15       1
    20   14   16      ar
    21   16   17      ar
    22   17   18      ar
    23   19   20      ar
    24   20   21      ar
    25   21   22       1
    26   22   23       3
    27    1   25       1
    28    1   26       1
    29    1   27       1
    30    2   28       1
    31    6   29       1
    32    6   30       1
    33    6   31       1
    34   11   32       1
    35   13   33       1
    36   15   34       1
    37   16   35       1
    38   17   36       1
    39   18   37       1
    40   20   38       1
@<TRIPOS>SUBSTRUCTURE
     1 T9N1299     1 GROUP             4 A     T9N     0 **** T9N A1299
