@<TRIPOS>MOLECULE
3syi_FAD_1_ligand
   84    89     1     0     0
SMALL
NO_CHARGES


@<TRIPOS>ATOM
     1 PA          40.7280   -23.6220     8.2950 P.3          1 FAD500   0.0000
     2 O1A         41.9460   -24.5080     8.4470 O.co2        1 FAD500   0.0000
     3 O2A         40.7980   -22.3360     9.0590 O.co2        1 FAD500  -1.0000
     4 O5B         39.4260   -24.4600     8.7470 O.3          1 FAD500   0.0000
     5 C5B         39.2280   -25.7960     8.3500 C.3          1 FAD500   0.0000
     6 C4B         38.4340   -26.4670     9.4700 C.3          1 FAD500   0.0000
     7 O4B         37.9180   -27.7060     9.0360 O.3          1 FAD500   0.0000
     8 C3B         39.2860   -26.7500    10.6940 C.3          1 FAD500   0.0000
     9 O3B         38.5670   -26.3110    11.8130 O.3          1 FAD500   0.0000
    10 C2B         39.3880   -28.2610    10.7700 C.3          1 FAD500   0.0000
    11 O2B         39.3150   -28.6850    12.1130 O.3          1 FAD500   0.0000
    12 C1B         38.1430   -28.6960    10.0210 C.3          1 FAD500   0.0000
    13 N9A         38.2440   -30.0290     9.4000 N.pl3        1 FAD500   0.0000
    14 C8A         39.2850   -30.5600     8.6890 C.2          1 FAD500   0.0000
    15 N7A         38.9300   -31.8110     8.3020 N.2          1 FAD500   0.0000
    16 C5A         37.6860   -32.0900     8.7550 C.ar         1 FAD500   0.0000
    17 C6A         36.8630   -33.2080     8.6520 C.ar         1 FAD500   0.0000
    18 N6A         37.2460   -34.3060     7.9880 N.pl3        1 FAD500   0.0000
    19 N1A         35.6150   -33.1700     9.2350 N.ar         1 FAD500   0.0000
    20 C2A         35.1980   -32.0440     9.9170 C.ar         1 FAD500   0.0000
    21 N3A         36.0210   -30.9470    10.0260 N.ar         1 FAD500   0.0000
    22 C4A         37.2440   -30.9710     9.4480 C.ar         1 FAD500   0.0000
    23 N1          45.3260   -15.5470     5.9460 N.2          1 FAD500   0.0000
    24 C2          45.2380   -14.1640     6.0000 C.2          1 FAD500   0.0000
    25 O2          44.3520   -13.5310     5.4050 O.2          1 FAD500   0.0000
    26 N3          46.1430   -13.4780     6.7710 N.pl3        1 FAD500   0.0000
    27 C4          47.2490   -14.1030     7.2960 C.2          1 FAD500   0.0000
    28 O4          48.0470   -13.4550     7.9700 O.2          1 FAD500   0.0000
    29 C4X         47.3910   -15.4740     7.1590 C.2          1 FAD500   0.0000
    30 N5          48.3440   -16.1240     7.9100 N.2          1 FAD500   0.0000
    31 C5X         48.2930   -17.4960     8.0160 C.ar         1 FAD500   0.0000
    32 C6          49.2310   -18.1480     8.8130 C.ar         1 FAD500   0.0000
    33 C7          49.2600   -19.5370     8.8570 C.ar         1 FAD500   0.0000
    34 C7M         50.3500   -20.2400     9.6160 C.3          1 FAD500   0.0000
    35 C8          48.3820   -20.2710     8.0710 C.ar         1 FAD500   0.0000
    36 C8M         48.5100   -21.7730     8.0620 C.3          1 FAD500   0.0000
    37 C9          47.5310   -19.6100     7.1760 C.ar         1 FAD500   0.0000
    38 C9A         47.3710   -18.2300     7.2680 C.ar         1 FAD500   0.0000
    39 N10         46.4870   -17.5760     6.4280 N.pl3        1 FAD500   0.0000
    40 C10         46.4110   -16.2020     6.4840 C.2          1 FAD500   0.0000
    41 C1'         45.7870   -18.3130     5.3070 C.3          1 FAD500   0.0000
    42 C2'         44.2990   -18.6080     5.5720 C.3          1 FAD500   0.0000
    43 O2'         43.5700   -17.4300     5.8680 O.3          1 FAD500   0.0000
    44 C3'         44.1210   -19.5860     6.7270 C.3          1 FAD500   0.0000
    45 O3'         44.7700   -20.7980     6.4150 O.3          1 FAD500   0.0000
    46 C4'         42.6410   -19.8530     7.0330 C.3          1 FAD500   0.0000
    47 O4'         42.5380   -20.4370     8.3110 O.3          1 FAD500   0.0000
    48 C5'         41.9850   -20.7540     5.9970 C.3          1 FAD500   0.0000
    49 O5'         40.6260   -20.9300     6.3380 O.3          1 FAD500   0.0000
    50 P           39.7650   -22.2510     5.9780 P.3          1 FAD500   0.0000
    51 O1P         38.3670   -22.0330     6.4890 O.co2        1 FAD500   0.0000
    52 O2P         39.7760   -22.6140     4.5170 O.co2        1 FAD500  -1.0000
    53 O3P         40.5330   -23.4370     6.7110 O.3          1 FAD500   0.0000
    54 H5B1        40.1083   -26.2544     8.2279 H            1 FAD500   0.0000
    55 H5B2        38.7131   -25.8294     7.4934 H            1 FAD500   0.0000
    56 H4B         37.6745   -25.8718     9.7324 H            1 FAD500   0.0000
    57 H3B         40.1851   -26.3165    10.6329 H            1 FAD500   0.0000
    58 H5          38.4050   -27.0822    12.4287 H            1 FAD500   0.0000
    59 H2B         40.2189   -28.5950    10.3249 H            1 FAD500   0.0000
    60 H7          40.1525   -29.1756    12.3537 H            1 FAD500   0.0000
    61 H1B         37.3709   -28.6966    10.6565 H            1 FAD500   0.0000
    62 H8A         40.1537   -30.1065     8.4898 H            1 FAD500   0.0000
    63 H6A1        36.6337   -35.0945     7.9304 H            1 FAD500   0.0000
    64 H6A2        38.1443   -34.3374     7.5498 H            1 FAD500   0.0000
    65 H2A         34.2899   -32.0258    10.3353 H            1 FAD500   0.0000
    66 H13         45.9951   -12.5061     6.9541 H            1 FAD500   0.0000
    67 H14         49.8835   -17.6169     9.3535 H            1 FAD500   0.0000
    68 H7M1        50.2211   -21.2291     9.5449 H            1 FAD500   0.0000
    69 H7M2        51.2385   -19.9910     9.2306 H            1 FAD500   0.0000
    70 H7M3        50.3157   -19.9676    10.5776 H            1 FAD500   0.0000
    71 H8M1        47.8167   -22.1630     7.4559 H            1 FAD500   0.0000
    72 H8M2        49.4200   -22.0280     7.7352 H            1 FAD500   0.0000
    73 H8M3        48.3781   -22.1243     8.9889 H            1 FAD500   0.0000
    74 H21         47.0407   -20.1269     6.4743 H            1 FAD500   0.0000
    75 H1'1        46.2577   -19.1835     5.1631 H            1 FAD500   0.0000
    76 H1'2        45.8530   -17.7574     4.4782 H            1 FAD500   0.0000
    77 H2'         43.9090   -19.0201     4.7486 H            1 FAD500   0.0000
    78 H25         44.1851   -16.6420     5.8421 H            1 FAD500   0.0000
    79 H3'         44.5492   -19.1966     7.5425 H            1 FAD500   0.0000
    80 H27         44.6549   -21.4420     7.1713 H            1 FAD500   0.0000
    81 H4'         42.1568   -18.9781     7.0443 H            1 FAD500   0.0000
    82 H29         41.7394   -21.0381     8.3394 H            1 FAD500   0.0000
    83 H5'1        42.4455   -21.6416     5.9844 H            1 FAD500   0.0000
    84 H5'2        42.0522   -20.3308     5.0935 H            1 FAD500   0.0000
@<TRIPOS>BOND
     1    1    2      ar
     2    1    3      ar
     3    1    4       1
     4    1   53       1
     5    4    5       1
     6    5    6       1
     7    6    7       1
     8    6    8       1
     9    7   12       1
    10    8    9       1
    11    8   10       1
    12   10   11       1
    13   10   12       1
    14   12   13       1
    15   13   14       1
    16   13   22       1
    17   14   15       2
    18   15   16       1
    19   16   17      ar
    20   16   22      ar
    21   17   18       1
    22   17   19      ar
    23   19   20      ar
    24   20   21      ar
    25   21   22      ar
    26   23   24       1
    27   23   40       2
    28   24   25       2
    29   24   26       1
    30   26   27       1
    31   27   28       2
    32   27   29       1
    33   29   30       2
    34   29   40       1
    35   30   31       1
    36   31   32      ar
    37   31   38      ar
    38   32   33      ar
    39   33   34       1
    40   33   35      ar
    41   35   36       1
    42   35   37      ar
    43   37   38      ar
    44   38   39       1
    45   39   40       1
    46   39   41       1
    47   41   42       1
    48   42   43       1
    49   42   44       1
    50   44   45       1
    51   44   46       1
    52   46   47       1
    53   46   48       1
    54   48   49       1
    55   49   50       1
    56   50   51      ar
    57   50   52      ar
    58   50   53       1
    59   48   84       1
    60    5   54       1
    61    5   55       1
    62    6   56       1
    63    8   57       1
    64    9   58       1
    65   10   59       1
    66   11   60       1
    67   12   61       1
    68   14   62       1
    69   18   63       1
    70   18   64       1
    71   20   65       1
    72   26   66       1
    73   32   67       1
    74   34   68       1
    75   34   69       1
    76   34   70       1
    77   36   71       1
    78   36   72       1
    79   36   73       1
    80   37   74       1
    81   41   75       1
    82   41   76       1
    83   42   77       1
    84   43   78       1
    85   44   79       1
    86   45   80       1
    87   46   81       1
    88   47   82       1
    89   48   83       1
@<TRIPOS>SUBSTRUCTURE
     1 FAD500      1 GROUP             4 A     FAD     0 **** FAD A 500
