@<TRIPOS>MOLECULE
3e6e_DCS_1_ligand
   34    35     1     0     0
SMALL
NO_CHARGES


@<TRIPOS>ATOM
     1 N1          21.1810   -22.6010   -26.9520 N.ar         1 DCS372   0.0000
     2 C2          22.2920   -21.7580   -26.6200 C.ar         1 DCS372   0.0000
     3 C2A         23.1460   -21.1250   -27.7020 C.3          1 DCS372   0.0000
     4 C3          22.5520   -21.5380   -25.2630 C.ar         1 DCS372   0.0000
     5 O3          23.5820   -20.7590   -24.8640 O.3          1 DCS372   0.0000
     6 C4          21.6950   -22.1710   -24.2730 C.ar         1 DCS372   0.0000
     7 C4A         21.9610   -21.9350   -22.7990 C.3          1 DCS372   0.0000
     8 C5          20.5840   -23.0130   -24.7220 C.ar         1 DCS372   0.0000
     9 C6          20.3620   -23.2050   -26.0400 C.ar         1 DCS372   0.0000
    10 C5A         19.6370   -23.7050   -23.7730 C.3          1 DCS372   0.0000
    11 O4P         18.8670   -22.7110   -23.0920 O.3          1 DCS372   0.0000
    12 P           17.7450   -23.0020   -22.0000 P.3          1 DCS372   0.0000
    13 O1P         16.7150   -23.7790   -22.6620 O.co2        1 DCS372   0.0000
    14 O2P         18.3490   -23.7230   -20.8840 O.co2        1 DCS372  -1.0000
    15 O3P         17.2130   -21.7150   -21.5650 O.co2        1 DCS372  -1.0000
    16 N           21.9060   -20.4510   -22.4850 N.pl3        1 DCS372   0.0000
    17 CA          22.1210   -19.9820   -21.1810 C.2          1 DCS372   0.0000
    18 C           23.3110   -19.3490   -20.7140 C.2          1 DCS372   0.0000
    19 O           24.4410   -19.1300   -21.4470 O.3          1 DCS372   0.0000
    20 ND          23.1380   -19.0090   -19.4600 N.2          1 DCS372   0.0000
    21 OG          21.8730   -19.3980   -19.0700 O.2          1 DCS372   0.0000
    22 CB          21.2620   -19.9900   -20.1180 C.2          1 DCS372   0.0000
    23 H2A1        23.8668   -20.5758   -27.2791 H            1 DCS372   0.0000
    24 H2A2        23.5593   -21.8424   -28.2628 H            1 DCS372   0.0000
    25 H2A3        22.5750   -20.5395   -28.2774 H            1 DCS372   0.0000
    26 H4          23.7510   -20.6143   -23.8891 H            1 DCS372   0.0000
    27 H4A1        22.8673   -22.2880   -22.5666 H            1 DCS372   0.0000
    28 H4A2        21.2685   -22.4125   -22.2582 H            1 DCS372   0.0000
    29 H7          19.6057   -23.7835   -26.3457 H            1 DCS372   0.0000
    30 H5A1        20.1577   -24.2414   -23.1088 H            1 DCS372   0.0000
    31 H5A2        19.0281   -24.3100   -24.2861 H            1 DCS372   0.0000
    32 H10         21.7138   -19.7987   -23.2182 H            1 DCS372   0.0000
    33 HB          20.3371   -20.3702   -20.1168 H            1 DCS372   0.0000
    34 H12         24.4822   -19.4235   -22.4021 H            1 DCS372   0.0000
@<TRIPOS>BOND
     1    1    2      ar
     2    1    9      ar
     3    2    3       1
     4    2    4      ar
     5    4    5       1
     6    4    6      ar
     7    6    7       1
     8    6    8      ar
     9    7   16       1
    10    8    9      ar
    11    8   10       1
    12   10   11       1
    13   11   12       1
    14   12   13      ar
    15   12   14      ar
    16   12   15      ar
    17   16   17       1
    18   17   18       1
    19   17   22       2
    20   18   19       1
    21   18   20       2
    22   20   21       1
    23   21   22       1
    24    3   23       1
    25    3   24       1
    26    3   25       1
    27    5   26       1
    28    7   27       1
    29    7   28       1
    30    9   29       1
    31   10   30       1
    32   10   31       1
    33   22   33       1
    34   19   34       1
    35   16   32       1
@<TRIPOS>SUBSTRUCTURE
     1 DCS372      1 GROUP             4 A     DCS     0 **** DCS A 372
