@<TRIPOS>MOLECULE
4btm_F8E_1_ligand
   32    34     1     0     0
SMALL
NO_CHARGES


@<TRIPOS>ATOM
     1 BR          -7.2550     9.7830   -32.2190 Br           1 F8E1340   0.0000
     2 C1          -3.3570     8.4870   -28.5630 C.3          1 F8E1340   0.0000
     3 O2          -3.8960     7.7470   -29.6610 O.3          1 F8E1340   0.0000
     4 C3          -4.8450     8.4660   -30.3350 C.2          1 F8E1340   0.0000
     5 O4          -5.3880     9.4720   -29.9050 O.2          1 F8E1340   0.0000
     6 C5          -5.0830     7.8750   -31.6800 C.ar         1 F8E1340   0.0000
     7 C6          -4.2980     6.8110   -32.0860 C.ar         1 F8E1340   0.0000
     8 C7          -4.4700     6.2420   -33.3330 C.ar         1 F8E1340   0.0000
     9 C8          -5.4120     6.7530   -34.1990 C.ar         1 F8E1340   0.0000
    10 C9          -6.2070     7.7970   -33.8120 C.ar         1 F8E1340   0.0000
    11 C10         -6.0460     8.3560   -32.5620 C.ar         1 F8E1340   0.0000
    12 N12         -3.6480     5.1800   -33.7170 N.pl3        1 F8E1340   0.0000
    13 C13         -4.0030     4.1670   -34.6320 C.ar         1 F8E1340   0.0000
    14 C14         -3.0660     3.1830   -34.9060 C.ar         1 F8E1340   0.0000
    15 C15         -1.7420     2.9010   -34.4740 C.2          1 F8E1340   0.0000
    16 C16         -1.3420     1.7510   -35.1160 C.2          1 F8E1340   0.0000
    17 N17         -2.3710     1.3280   -35.9140 N.pl3        1 F8E1340   0.0000
    18 C19         -3.4290     2.1920   -35.7980 C.ar         1 F8E1340   0.0000
    19 N20         -4.6090     2.0850   -36.4230 N.ar         1 F8E1340   0.0000
    20 C21         -5.4380     3.0760   -36.0900 C.ar         1 F8E1340   0.0000
    21 N22         -5.1990     4.0840   -35.2500 N.ar         1 F8E1340   0.0000
    22 H1          -2.6687     7.9336   -28.0940 H            1 F8E1340   0.0000
    23 H2          -2.9343     9.3272   -28.9027 H            1 F8E1340   0.0000
    24 H3          -4.0910     8.7178   -27.9242 H            1 F8E1340   0.0000
    25 H4          -3.5981     6.4496   -31.4699 H            1 F8E1340   0.0000
    26 H5          -5.5148     6.3598   -35.1127 H            1 F8E1340   0.0000
    27 H6          -6.9035     8.1539   -34.4345 H            1 F8E1340   0.0000
    28 H7          -2.7353     5.1342   -33.3109 H            1 F8E1340   0.0000
    29 H8          -1.2021     3.4374   -33.8253 H            1 F8E1340   0.0000
    30 H9          -0.4538     1.3023   -35.0168 H            1 F8E1340   0.0000
    31 H10         -2.3535     0.5130   -36.4932 H            1 F8E1340   0.0000
    32 H11         -6.3412     3.0613   -36.5190 H            1 F8E1340   0.0000
@<TRIPOS>BOND
     1    1   11       1
     2    2    3       1
     3    3    4       1
     4    4    5       2
     5    4    6       1
     6    6    7      ar
     7    6   11      ar
     8    7    8      ar
     9    8    9      ar
    10    8   12       1
    11    9   10      ar
    12   10   11      ar
    13   12   13       1
    14   13   14      ar
    15   13   21      ar
    16   14   15       1
    17   14   18      ar
    18   15   16       2
    19   16   17       1
    20   17   18       1
    21   18   19      ar
    22   19   20      ar
    23   20   21      ar
    24    2   22       1
    25    2   23       1
    26    2   24       1
    27    7   25       1
    28    9   26       1
    29   10   27       1
    30   12   28       1
    31   15   29       1
    32   16   30       1
    33   17   31       1
    34   20   32       1
@<TRIPOS>SUBSTRUCTURE
     1 F8E1340     1 GROUP             4 A     F8E     0 **** F8E A1340
