@<TRIPOS>MOLECULE
3a0t_ADP_1_ligand
   39    41     1     0     0
SMALL
NO_CHARGES


@<TRIPOS>ATOM
     1 PB         -34.4140    12.5850    41.2140 P.3          1 ADP801   0.0000
     2 O1B        -33.7370    12.7010    39.8720 O.co2        1 ADP801   0.0000
     3 O2B        -34.2190    11.2470    41.8800 O.co2        1 ADP801  -1.0000
     4 O3B        -34.1410    13.7860    42.0930 O.co2        1 ADP801  -1.0000
     5 PA         -36.7950    12.4370    39.5790 P.3          1 ADP801   0.0000
     6 O1A        -38.2680    12.5740    39.8650 O.co2        1 ADP801   0.0000
     7 O2A        -36.1230    13.2430    38.4930 O.co2        1 ADP801  -1.0000
     8 O3A        -36.0130    12.6310    40.9770 O.3          1 ADP801   0.0000
     9 O5'        -36.5550    10.8700    39.2830 O.3          1 ADP801   0.0000
    10 C5'        -37.0730     9.9270    40.2240 C.3          1 ADP801   0.0000
    11 C4'        -36.4090     8.5540    40.0640 C.3          1 ADP801   0.0000
    12 O4'        -36.7540     8.0040    38.7960 O.3          1 ADP801   0.0000
    13 C3'        -34.8860     8.5600    40.0480 C.3          1 ADP801   0.0000
    14 O3'        -34.3020     8.6700    41.3580 O.3          1 ADP801   0.0000
    15 C2'        -34.5830     7.2190    39.3930 C.3          1 ADP801   0.0000
    16 O2'        -34.8260     6.1760    40.3540 O.3          1 ADP801   0.0000
    17 C1'        -35.7170     7.1080    38.3800 C.3          1 ADP801   0.0000
    18 N9         -35.2680     7.5600    37.0510 N.pl3        1 ADP801   0.0000
    19 C8         -35.4950     8.7770    36.5060 C.2          1 ADP801   0.0000
    20 N7         -34.9950     8.8420    35.2460 N.2          1 ADP801   0.0000
    21 C5         -34.4260     7.6330    34.9980 C.ar         1 ADP801   0.0000
    22 C6         -33.6470     7.0570    33.8850 C.ar         1 ADP801   0.0000
    23 N6         -33.4330     7.7860    32.7570 N.pl3        1 ADP801   0.0000
    24 N1         -33.2220     5.7750    34.0160 N.ar         1 ADP801   0.0000
    25 C2         -33.4410     5.0460    35.1440 C.ar         1 ADP801   0.0000
    26 N3         -34.0960     5.5180    36.2280 N.ar         1 ADP801   0.0000
    27 C4         -34.6070     6.7940    36.1920 C.ar         1 ADP801   0.0000
    28 H5'1       -38.0578     9.8309    40.0796 H            1 ADP801   0.0000
    29 H5'2       -36.9032    10.2646    41.1499 H            1 ADP801   0.0000
    30 H4'        -36.7304     7.9440    40.7883 H            1 ADP801   0.0000
    31 H3'        -34.5561     9.3035    39.4663 H            1 ADP801   0.0000
    32 H5         -34.1712     9.6351    41.5847 H            1 ADP801   0.0000
    33 H2'        -33.6738     7.1747    38.9790 H            1 ADP801   0.0000
    34 H7         -33.9876     5.9943    40.8679 H            1 ADP801   0.0000
    35 H1'        -36.0592     6.1694    38.3358 H            1 ADP801   0.0000
    36 H9         -35.9673     9.5272    36.9688 H            1 ADP801   0.0000
    37 H10        -32.9052     7.3962    32.0024 H            1 ADP801   0.0000
    38 H11        -33.8035     8.7118    32.6822 H            1 ADP801   0.0000
    39 H12        -33.0976     4.1072    35.1726 H            1 ADP801   0.0000
@<TRIPOS>BOND
     1    1    2      ar
     2    1    3      ar
     3    1    4      ar
     4    1    8       1
     5    5    6      ar
     6    5    7      ar
     7    5    8       1
     8    5    9       1
     9    9   10       1
    10   10   11       1
    11   11   12       1
    12   11   13       1
    13   12   17       1
    14   13   14       1
    15   13   15       1
    16   15   16       1
    17   15   17       1
    18   17   18       1
    19   18   19       1
    20   18   27       1
    21   19   20       2
    22   20   21       1
    23   21   22      ar
    24   21   27      ar
    25   22   23       1
    26   22   24      ar
    27   24   25      ar
    28   25   26      ar
    29   26   27      ar
    30   25   39       1
    31   23   38       1
    32   23   37       1
    33   10   28       1
    34   10   29       1
    35   11   30       1
    36   13   31       1
    37   14   32       1
    38   15   33       1
    39   16   34       1
    40   17   35       1
    41   19   36       1
@<TRIPOS>SUBSTRUCTURE
     1 ADP801      1 GROUP             4 A     ADP     0 **** ADP A 801
