@<TRIPOS>MOLECULE
1ytm_ATP_1_ligand
   43    45     1     0     0
SMALL
NO_CHARGES


@<TRIPOS>ATOM
     1 PG          69.2570    20.4260    21.1300 P.3          1 ATP541   0.0000
     2 O1G         70.1280    20.4950    19.9550 O.co2        1 ATP541   0.0000
     3 O2G         69.9240    20.7360    22.4060 O.co2        1 ATP541  -1.0000
     4 O3G         68.4490    19.1960    21.2460 O.co2        1 ATP541  -1.0000
     5 PB          66.9650    21.9950    20.0010 P.3          1 ATP541   0.0000
     6 O1B         67.3770    23.0130    19.0160 O.co2        1 ATP541   0.0000
     7 O2B         66.3330    20.8030    19.4600 O.co2        1 ATP541  -1.0000
     8 O3B         68.2060    21.7370    21.0810 O.3          1 ATP541   0.0000
     9 PA          64.3450    22.2900    21.1720 P.3          1 ATP541   0.0000
    10 O1A         63.6190    22.5630    19.8990 O.co2        1 ATP541   0.0000
    11 O2A         64.2230    20.9650    21.8420 O.co2        1 ATP541  -1.0000
    12 O3A         65.9470    22.7180    21.0340 O.3          1 ATP541   0.0000
    13 O5'         63.9930    23.3890    22.2590 O.3          1 ATP541   0.0000
    14 C5'         63.6620    24.7720    22.0280 C.3          1 ATP541   0.0000
    15 C4'         63.0090    25.3270    23.2970 C.3          1 ATP541   0.0000
    16 O4'         62.6670    26.7130    23.1150 O.3          1 ATP541   0.0000
    17 C3'         61.7200    24.5770    23.6760 C.3          1 ATP541   0.0000
    18 O3'         61.6410    24.5090    25.1230 O.3          1 ATP541   0.0000
    19 C2'         60.6480    25.5230    23.1170 C.3          1 ATP541   0.0000
    20 O2'         59.3700    25.3760    23.7520 O.3          1 ATP541   0.0000
    21 C1'         61.2470    26.8670    23.3710 C.3          1 ATP541   0.0000
    22 N9          60.7480    27.9590    22.4870 N.pl3        1 ATP541   0.0000
    23 C8          60.1540    29.1270    22.9230 C.2          1 ATP541   0.0000
    24 N7          59.8120    29.9350    21.9630 N.2          1 ATP541   0.0000
    25 C5          60.1910    29.2700    20.8010 C.ar         1 ATP541   0.0000
    26 C6          60.1030    29.6100    19.4170 C.ar         1 ATP541   0.0000
    27 N6          59.5580    30.7440    18.9930 N.pl3        1 ATP541   0.0000
    28 N1          60.5870    28.7090    18.5040 N.ar         1 ATP541   0.0000
    29 C2          61.1400    27.5510    18.9320 C.ar         1 ATP541   0.0000
    30 N3          61.2810    27.1230    20.2060 N.ar         1 ATP541   0.0000
    31 C4          60.7850    28.0550    21.1020 C.ar         1 ATP541   0.0000
    32 H5'1        63.0250    24.8438    21.2605 H            1 ATP541   0.0000
    33 H5'2        64.4928    25.2888    21.8212 H            1 ATP541   0.0000
    34 H4'         63.6593    25.2523    24.0530 H            1 ATP541   0.0000
    35 H3'         61.6763    23.6708    23.2554 H            1 ATP541   0.0000
    36 H5          61.1515    25.3098    25.4681 H            1 ATP541   0.0000
    37 H2'         60.5526    25.3783    22.1321 H            1 ATP541   0.0000
    38 H7          58.8879    26.2520    23.7376 H            1 ATP541   0.0000
    39 H1'         61.1055    27.1206    24.3279 H            1 ATP541   0.0000
    40 H9          60.0007    29.3329    23.8895 H            1 ATP541   0.0000
    41 H10         59.5164    30.9434    18.0140 H            1 ATP541   0.0000
    42 H11         59.1891    31.3987    19.6527 H            1 ATP541   0.0000
    43 H12         61.4856    26.9387    18.2209 H            1 ATP541   0.0000
@<TRIPOS>BOND
     1    1    2      ar
     2    1    3      ar
     3    1    4      ar
     4    1    8       1
     5    5    6      ar
     6    5    7      ar
     7    5    8       1
     8    5   12       1
     9    9   10      ar
    10    9   11      ar
    11    9   12       1
    12    9   13       1
    13   13   14       1
    14   14   15       1
    15   15   16       1
    16   15   17       1
    17   16   21       1
    18   17   18       1
    19   17   19       1
    20   19   20       1
    21   19   21       1
    22   21   22       1
    23   22   23       1
    24   22   31       1
    25   23   24       2
    26   24   25       1
    27   25   26      ar
    28   25   31      ar
    29   26   27       1
    30   26   28      ar
    31   28   29      ar
    32   29   30      ar
    33   30   31      ar
    34   29   43       1
    35   27   42       1
    36   27   41       1
    37   23   40       1
    38   14   32       1
    39   14   33       1
    40   15   34       1
    41   17   35       1
    42   18   36       1
    43   19   37       1
    44   20   38       1
    45   21   39       1
@<TRIPOS>SUBSTRUCTURE
     1 ATP541      1 GROUP             4 A     ATP     0 **** ATP A 541
