@<TRIPOS>MOLECULE
3hb8_UMP_1_ligand
   31    32     1     0     0
SMALL
NO_CHARGES


@<TRIPOS>ATOM
     1 N1          25.4610   -11.6780   100.5810 N.pl3        1 UMP314   0.0000
     2 C2          25.7200   -10.8880    99.4780 C.2          1 UMP314   0.0000
     3 N3          25.8450   -11.4540    98.2500 N.pl3        1 UMP314   0.0000
     4 C4          25.7320   -12.8080    98.0710 C.2          1 UMP314   0.0000
     5 C5          25.4720   -13.6500    99.1990 C.2          1 UMP314   0.0000
     6 C6          25.3440   -13.0630   100.4330 C.2          1 UMP314   0.0000
     7 O2          25.8290    -9.6840    99.5760 O.2          1 UMP314   0.0000
     8 O4          25.8520   -13.2960    96.9740 O.2          1 UMP314   0.0000
     9 C1'         25.3010   -11.1280   101.9690 C.3          1 UMP314   0.0000
    10 C2'         26.4290   -10.1750   102.4570 C.3          1 UMP314   0.0000
    11 C3'         25.6840    -9.3010   103.5180 C.3          1 UMP314   0.0000
    12 C4'         24.2640    -9.8770   103.5090 C.3          1 UMP314   0.0000
    13 O3'         26.2650    -9.4830   104.8150 O.3          1 UMP314   0.0000
    14 O4'         24.1130   -10.3440   102.1360 O.3          1 UMP314   0.0000
    15 C5'         23.2030    -8.8290   103.9040 C.3          1 UMP314   0.0000
    16 O5'         21.9190    -9.4540   103.8820 O.3          1 UMP314   0.0000
    17 P           20.7600    -8.4250   104.3260 P.3          1 UMP314   0.0000
    18 OP1         20.7300    -7.2520   103.4420 O.co2        1 UMP314   0.0000
    19 OP2         19.3580    -9.1820   104.2670 O.co2        1 UMP314  -1.0000
    20 OP3         21.0240    -7.9390   105.8220 O.co2        1 UMP314  -1.0000
    21 H1          26.0235   -10.8696    97.4584 H            1 UMP314   0.0000
    22 H2          25.3858   -14.6404    99.0907 H            1 UMP314   0.0000
    23 H3          25.1650   -13.6326   101.2352 H            1 UMP314   0.0000
    24 H1'         25.2532   -11.8997   102.6031 H            1 UMP314   0.0000
    25 H2'1        26.7802    -9.6144   101.7070 H            1 UMP314   0.0000
    26 H2'2        27.1817   -10.6862   102.8719 H            1 UMP314   0.0000
    27 H3'         25.6837    -8.3362   103.2549 H            1 UMP314   0.0000
    28 H4'         24.2146   -10.6555   104.1347 H            1 UMP314   0.0000
    29 H9          26.6051    -8.6058   105.1540 H            1 UMP314   0.0000
    30 H5'1        23.2199    -8.0699   103.2532 H            1 UMP314   0.0000
    31 H5'2        23.3948    -8.4845   104.8230 H            1 UMP314   0.0000
@<TRIPOS>BOND
     1    1    2       1
     2    1    6       1
     3    1    9       1
     4    2    3       1
     5    2    7       2
     6    3    4       1
     7    4    5       1
     8    4    8       2
     9    5    6       2
    10    9   10       1
    11    9   14       1
    12   10   11       1
    13   11   12       1
    14   11   13       1
    15   12   14       1
    16   12   15       1
    17   15   16       1
    18   16   17       1
    19   17   18      ar
    20   17   19      ar
    21   17   20      ar
    22    3   21       1
    23    5   22       1
    24    6   23       1
    25    9   24       1
    26   10   25       1
    27   10   26       1
    28   11   27       1
    29   12   28       1
    30   13   29       1
    31   15   30       1
    32   15   31       1
@<TRIPOS>SUBSTRUCTURE
     1 UMP314      1 GROUP             4 A     UMP     0 **** UMP A 314
