@<TRIPOS>MOLECULE
2ixa_NAD_1_ligand
   70    74     1     0     0
SMALL
NO_CHARGES


@<TRIPOS>ATOM
     1 PA         -17.5460    39.7560     0.8830 P.3          1 NAD1445   0.0000
     2 O1A        -17.4090    38.3050     1.3450 O.co2        1 NAD1445   0.0000
     3 O2A        -18.9350    40.2270     0.7660 O.co2        1 NAD1445  -1.0000
     4 O5B        -16.8340    39.9220    -0.5480 O.3          1 NAD1445   0.0000
     5 C5B        -15.7140    39.1440    -0.9160 C.3          1 NAD1445   0.0000
     6 C4B        -15.8770    38.7630    -2.3780 C.3          1 NAD1445   0.0000
     7 O4B        -14.6240    38.3490    -2.8870 O.3          1 NAD1445   0.0000
     8 C3B        -16.8570    37.6180    -2.6070 C.3          1 NAD1445   0.0000
     9 O3B        -17.8090    37.9810    -3.5800 O.3          1 NAD1445   0.0000
    10 C2B        -15.9740    36.4760    -3.0820 C.3          1 NAD1445   0.0000
    11 O2B        -16.6320    35.5860    -3.9630 O.3          1 NAD1445   0.0000
    12 C1B        -14.8380    37.2500    -3.7360 C.3          1 NAD1445   0.0000
    13 N9A        -13.5940    36.4960    -3.9250 N.pl3        1 NAD1445   0.0000
    14 C8A        -12.9860    35.6360    -3.0530 C.2          1 NAD1445   0.0000
    15 N7A        -11.8630    35.1660    -3.6360 N.2          1 NAD1445   0.0000
    16 C5A        -11.7520    35.7180    -4.8630 C.ar         1 NAD1445   0.0000
    17 C6A        -10.8040    35.5760    -5.8670 C.ar         1 NAD1445   0.0000
    18 N6A         -9.7620    34.7740    -5.6820 N.pl3        1 NAD1445   0.0000
    19 N1A        -10.9570    36.2820    -7.0400 N.ar         1 NAD1445   0.0000
    20 C2A        -12.0430    37.1230    -7.2160 C.ar         1 NAD1445   0.0000
    21 N3A        -12.9830    37.2610    -6.2160 N.ar         1 NAD1445   0.0000
    22 C4A        -12.8340    36.5650    -5.0580 C.ar         1 NAD1445   0.0000
    23 O3         -16.6620    40.6990     1.8510 O.3          1 NAD1445   0.0000
    24 PN         -16.6160    42.3040     1.7840 P.3          1 NAD1445   0.0000
    25 O1N        -17.4320    42.8180     2.9040 O.co2        1 NAD1445   0.0000
    26 O2N        -16.9690    42.7820     0.4390 O.co2        1 NAD1445  -1.0000
    27 O5D        -15.0870    42.6310     2.1510 O.3          1 NAD1445   0.0000
    28 C5D        -14.0270    42.5670     1.2170 C.3          1 NAD1445   0.0000
    29 C4D        -12.9330    43.5790     1.5340 C.3          1 NAD1445   0.0000
    30 O4D        -13.5100    44.8520     1.7190 O.3          1 NAD1445   0.0000
    31 C3D        -12.1840    43.2590     2.8120 C.3          1 NAD1445   0.0000
    32 O3D        -10.8290    43.6240     2.6930 O.3          1 NAD1445   0.0000
    33 C2D        -12.8890    44.1170     3.8440 C.3          1 NAD1445   0.0000
    34 O2D        -12.1080    44.3940     4.9760 O.3          1 NAD1445   0.0000
    35 C1D        -13.1950    45.3540     3.0060 C.3          1 NAD1445   0.0000
    36 N1N        -14.2860    46.2130     3.5220 N.ar         1 NAD1445   1.0000
    37 C2N        -14.0640    47.5560     3.5800 C.ar         1 NAD1445   0.0000
    38 C3N        -15.0630    48.4180     4.0410 C.ar         1 NAD1445   0.0000
    39 C7N        -14.8210    49.8970     4.1000 C.2          1 NAD1445   0.0000
    40 O7N        -15.8280    50.7520     4.5840 O.2          1 NAD1445   0.0000
    41 N7N        -13.6560    50.3950     3.6950 N.am         1 NAD1445   0.0000
    42 C4N        -16.2810    47.8900     4.4650 C.ar         1 NAD1445   0.0000
    43 C5N        -16.4880    46.5180     4.4110 C.ar         1 NAD1445   0.0000
    44 C6N        -15.4820    45.6890     3.9370 C.ar         1 NAD1445   0.0000
    45 H5B1       -15.6717    38.3195    -0.3518 H            1 NAD1445   0.0000
    46 H5B2       -14.8754    39.6749    -0.7938 H            1 NAD1445   0.0000
    47 H4B        -16.1874    39.5639    -2.8900 H            1 NAD1445   0.0000
    48 H3B        -17.3114    37.3729    -1.7506 H            1 NAD1445   0.0000
    49 H5         -17.3435    38.1908    -4.4398 H            1 NAD1445   0.0000
    50 H2B        -15.6252    35.9706    -2.2928 H            1 NAD1445   0.0000
    51 H7         -16.9390    36.0852    -4.7733 H            1 NAD1445   0.0000
    52 H1B        -15.1483    37.5863    -4.6252 H            1 NAD1445   0.0000
    53 H8A        -13.3166    35.3964    -2.1401 H            1 NAD1445   0.0000
    54 H6A1        -9.0773    34.6694    -6.4032 H            1 NAD1445   0.0000
    55 H6A2        -9.6620    34.2746    -4.8214 H            1 NAD1445   0.0000
    56 H2A        -12.1461    37.6318    -8.0707 H            1 NAD1445   0.0000
    57 H5D1       -14.3881    42.7559     0.3038 H            1 NAD1445   0.0000
    58 H5D2       -13.6334    41.6479     1.2363 H            1 NAD1445   0.0000
    59 H4D        -12.2863    43.6165     0.7722 H            1 NAD1445   0.0000
    60 H3D        -12.2705    42.2891     3.0395 H            1 NAD1445   0.0000
    61 H17        -10.6037    44.3020     3.3927 H            1 NAD1445   0.0000
    62 H2D        -13.7431    43.6776     4.1221 H            1 NAD1445   0.0000
    63 H19        -12.6318    44.9609     5.6118 H            1 NAD1445   0.0000
    64 H1D        -12.3630    45.9046     2.9371 H            1 NAD1445   0.0000
    65 H2N        -13.1814    47.9270     3.2911 H            1 NAD1445   0.0000
    66 H7N1       -13.4931    51.3809     3.7337 H            1 NAD1445   0.0000
    67 H7N2       -12.9430    49.7835     3.3518 H            1 NAD1445   0.0000
    68 H4N        -17.0008    48.4949     4.8057 H            1 NAD1445   0.0000
    69 H5N        -17.3586    46.1293     4.7125 H            1 NAD1445   0.0000
    70 H6N        -15.6308    44.7009     3.8978 H            1 NAD1445   0.0000
@<TRIPOS>BOND
     1    1    2      ar
     2    1    3      ar
     3    1    4       1
     4    1   23       1
     5    4    5       1
     6    5    6       1
     7    6    7       1
     8    6    8       1
     9    7   12       1
    10    8    9       1
    11    8   10       1
    12   10   11       1
    13   10   12       1
    14   12   13       1
    15   13   14       1
    16   13   22       1
    17   14   15       2
    18   15   16       1
    19   16   17      ar
    20   16   22      ar
    21   17   18       1
    22   17   19      ar
    23   19   20      ar
    24   20   21      ar
    25   21   22      ar
    26   23   24       1
    27   24   25      ar
    28   24   26      ar
    29   24   27       1
    30   27   28       1
    31   28   29       1
    32   29   30       1
    33   29   31       1
    34   30   35       1
    35   31   32       1
    36   31   33       1
    37   33   34       1
    38   33   35       1
    39   35   36       1
    40   36   37      ar
    41   36   44      ar
    42   37   38      ar
    43   38   39       1
    44   38   42      ar
    45   39   40       2
    46   39   41      am
    47   42   43      ar
    48   43   44      ar
    49   44   70       1
    50    5   45       1
    51    5   46       1
    52    6   47       1
    53    8   48       1
    54    9   49       1
    55   10   50       1
    56   11   51       1
    57   12   52       1
    58   14   53       1
    59   18   54       1
    60   18   55       1
    61   20   56       1
    62   43   69       1
    63   28   57       1
    64   28   58       1
    65   29   59       1
    66   31   60       1
    67   32   61       1
    68   33   62       1
    69   34   63       1
    70   35   64       1
    71   37   65       1
    72   41   66       1
    73   41   67       1
    74   42   68       1
@<TRIPOS>SUBSTRUCTURE
     1 NAD1445     1 GROUP             4 A     NAD     0 **** NAD A1445
