@<TRIPOS>MOLECULE
1q20_PLO_1_ligand
   55    58     1     0     0
SMALL
NO_CHARGES


@<TRIPOS>ATOM
     1 C1          14.1540    16.6540    28.8170 C.3          1 PLO401   0.0000
     2 C2          15.0180    17.4350    27.7540 C.3          1 PLO401   0.0000
     3 C3          16.4030    16.7720    27.4830 C.3          1 PLO401   0.0000
     4 O3          17.1980    17.4920    26.4820 O.3          1 PLO401   0.0000
     5 C4          16.2670    15.2600    27.0280 C.3          1 PLO401   0.0000
     6 C5          15.4360    14.4380    28.0380 C.2          1 PLO401   0.0000
     7 C6          15.8820    13.0280    28.4570 C.2          1 PLO401   0.0000
     8 C7          15.0780    12.1600    29.4530 C.3          1 PLO401   0.0000
     9 C8          13.7090    12.7600    30.0340 C.3          1 PLO401   0.0000
    10 C9          13.7630    14.3160    30.1420 C.3          1 PLO401   0.0000
    11 C10         14.0450    14.9840    28.7360 C.3          1 PLO401   0.0000
    12 C11         12.4490    14.8780    30.7430 C.3          1 PLO401   0.0000
    13 C12         12.1200    14.2470    32.1140 C.3          1 PLO401   0.0000
    14 C13         12.0210    12.6910    32.0300 C.3          1 PLO401   0.0000
    15 C14         13.3950    12.1780    31.4330 C.3          1 PLO401   0.0000
    16 C15         13.2790    10.6470    31.6320 C.3          1 PLO401   0.0000
    17 C16         12.6870    10.5150    33.0340 C.3          1 PLO401   0.0000
    18 C17         12.0260    11.8970    33.4010 C.3          1 PLO401   0.0000
    19 C18         10.7900    12.2750    31.1480 C.3          1 PLO401   0.0000
    20 C19         12.8930    14.8230    27.7030 C.3          1 PLO401   0.0000
    21 C20         10.6290    11.6970    34.0520 C.2          1 PLO401   0.0000
    22 C21          9.9620    12.9190    34.5990 C.3          1 PLO401   0.0000
    23 O20         10.0750    10.6130    34.1350 O.2          1 PLO401   0.0000
    24 H1          13.2215    17.0087    28.7493 H            1 PLO401   0.0000
    25 H2          14.5308    16.8764    29.7162 H            1 PLO401   0.0000
    26 H3          15.1706    18.3646    28.0894 H            1 PLO401   0.0000
    27 H4          14.5086    17.4703    26.8942 H            1 PLO401   0.0000
    28 H5          16.9162    16.7838    28.3412 H            1 PLO401   0.0000
    29 H6          17.3653    18.4259    26.7980 H            1 PLO401   0.0000
    30 H7          17.1802    14.8589    26.9558 H            1 PLO401   0.0000
    31 H8          15.8175    15.2284    26.1353 H            1 PLO401   0.0000
    32 H9          16.7261    12.6569    28.0700 H            1 PLO401   0.0000
    33 H10         15.6750    11.9706    30.2326 H            1 PLO401   0.0000
    34 H11         14.8544    11.3031    28.9885 H            1 PLO401   0.0000
    35 H12         12.9655    12.5112    29.4133 H            1 PLO401   0.0000
    36 H13         14.5137    14.5583    30.7566 H            1 PLO401   0.0000
    37 H14         11.6978    14.6864    30.1113 H            1 PLO401   0.0000
    38 H15         12.5441    15.8668    30.8577 H            1 PLO401   0.0000
    39 H16         11.2453    14.6097    32.4353 H            1 PLO401   0.0000
    40 H17         12.8405    14.4905    32.7633 H            1 PLO401   0.0000
    41 H18         14.1159    12.4968    32.0484 H            1 PLO401   0.0000
    42 H19         14.1773    10.2106    31.5805 H            1 PLO401   0.0000
    43 H20         12.6721    10.2424    30.9479 H            1 PLO401   0.0000
    44 H21         13.4092    10.2969    33.6904 H            1 PLO401   0.0000
    45 H22         11.9961     9.7921    33.0462 H            1 PLO401   0.0000
    46 H23         12.6183    12.3759    34.0490 H            1 PLO401   0.0000
    47 H24         10.7357    11.2776    31.1007 H            1 PLO401   0.0000
    48 H25          9.9510    12.6356    31.5555 H            1 PLO401   0.0000
    49 H26         10.8995    12.6470    30.2262 H            1 PLO401   0.0000
    50 H27         12.7140    13.8508    27.5521 H            1 PLO401   0.0000
    51 H28         12.0667    15.2635    28.0539 H            1 PLO401   0.0000
    52 H29         13.1578    15.2512    26.8390 H            1 PLO401   0.0000
    53 H30          9.0762    12.6686    34.9897 H            1 PLO401   0.0000
    54 H31         10.5376    13.3230    35.3099 H            1 PLO401   0.0000
    55 H32          9.8263    13.5823    33.8631 H            1 PLO401   0.0000
@<TRIPOS>BOND
     1    1    2       1
     2    1   11       1
     3    2    3       1
     4    3    4       1
     5    3    5       1
     6    5    6       1
     7    6    7       2
     8    6   11       1
     9    7    8       1
    10    8    9       1
    11    9   10       1
    12    9   15       1
    13   10   11       1
    14   10   12       1
    15   11   20       1
    16   12   13       1
    17   13   14       1
    18   14   15       1
    19   14   18       1
    20   14   19       1
    21   15   16       1
    22   16   17       1
    23   17   18       1
    24   18   21       1
    25   21   22       1
    26   21   23       2
    27    1   24       1
    28    1   25       1
    29    2   26       1
    30    2   27       1
    31    3   28       1
    32    4   29       1
    33    5   30       1
    34    5   31       1
    35    7   32       1
    36    8   33       1
    37    8   34       1
    38    9   35       1
    39   10   36       1
    40   12   37       1
    41   12   38       1
    42   13   39       1
    43   13   40       1
    44   15   41       1
    45   16   42       1
    46   16   43       1
    47   17   44       1
    48   17   45       1
    49   18   46       1
    50   19   47       1
    51   19   48       1
    52   19   49       1
    53   20   50       1
    54   20   51       1
    55   20   52       1
    56   22   53       1
    57   22   54       1
    58   22   55       1
@<TRIPOS>SUBSTRUCTURE
     1 PLO401      1 GROUP             4 A     PLO     0 **** PLO A 401
