@<TRIPOS>MOLECULE
1zkl_IBM_1_ligand
   30    31     1     0     0
SMALL
NO_CHARGES


@<TRIPOS>ATOM
     1 N9          -1.6860    49.7990    22.7020 N.2          1 IBM503   0.0000
     2 C8          -1.1130    48.7300    22.0570 C.2          1 IBM503   0.0000
     3 N7           0.0490    49.0030    21.5150 N.pl3        1 IBM503   0.0000
     4 C5           0.2530    50.3400    21.8250 C.2          1 IBM503   0.0000
     5 C4          -0.8030    50.8420    22.5540 C.2          1 IBM503   0.0000
     6 N3          -0.9480    52.1000    23.0310 N.pl3        1 IBM503   0.0000
     7 C2           0.0880    52.9400    22.7390 C.2          1 IBM503   0.0000
     8 N1           1.2000    52.5190    22.0070 N.pl3        1 IBM503   0.0000
     9 C6           1.2860    51.2260    21.5500 C.2          1 IBM503   0.0000
    10 O6           2.2630    50.8540    20.9150 O.2          1 IBM503   0.0000
    11 O2           0.0450    54.0970    23.1420 O.2          1 IBM503   0.0000
    12 C10          2.2750    53.4590    21.7170 C.3          1 IBM503   0.0000
    13 C11         -2.1040    52.5110    23.8150 C.3          1 IBM503   0.0000
    14 C12         -3.2030    53.0680    22.8920 C.3          1 IBM503   0.0000
    15 C13         -2.8950    54.4580    22.3710 C.3          1 IBM503   0.0000
    16 C14         -3.6230    52.1270    21.7670 C.3          1 IBM503   0.0000
    17 H1          -1.5420    47.8282    22.0057 H            1 IBM503   0.0000
    18 H2           2.9877    52.9977    21.1885 H            1 IBM503   0.0000
    19 H3           1.9128    54.2270    21.1889 H            1 IBM503   0.0000
    20 H4           2.6623    53.7974    22.5746 H            1 IBM503   0.0000
    21 H5          -1.8276    53.2197    24.4642 H            1 IBM503   0.0000
    22 H6          -2.4613    51.7220    24.3149 H            1 IBM503   0.0000
    23 H7          -4.0119    53.1718    23.4707 H            1 IBM503   0.0000
    24 H8          -3.6409    54.7654    21.7802 H            1 IBM503   0.0000
    25 H9          -2.7981    55.0887    23.1410 H            1 IBM503   0.0000
    26 H10         -2.0428    54.4368    21.8482 H            1 IBM503   0.0000
    27 H11         -4.3362    52.5620    21.2173 H            1 IBM503   0.0000
    28 H12         -2.8326    51.9255    21.1885 H            1 IBM503   0.0000
    29 H13         -3.9755    51.2767    22.1578 H            1 IBM503   0.0000
    30 H14          0.6482    48.3909    20.9989 H            1 IBM503   0.0000
@<TRIPOS>BOND
     1    1    2       2
     2    1    5       1
     3    2    3       1
     4    3    4       1
     5    4    5       2
     6    4    9       1
     7    5    6       1
     8    6    7       1
     9    6   13       1
    10    7    8       1
    11    7   11       2
    12    8    9       1
    13    8   12       1
    14    9   10       2
    15   13   14       1
    16   14   15       1
    17   14   16       1
    18   16   29       1
    19    2   17       1
    20   12   18       1
    21   12   19       1
    22   12   20       1
    23   13   21       1
    24   13   22       1
    25   14   23       1
    26   15   24       1
    27   15   25       1
    28   15   26       1
    29   16   27       1
    30   16   28       1
    31    3   30       1
@<TRIPOS>SUBSTRUCTURE
     1 IBM503      1 GROUP             4 A     IBM     0 **** IBM A 503
