@<TRIPOS>MOLECULE
3i9j_AVV_2_ligand
   56    59     1     0     0
SMALL
NO_CHARGES


@<TRIPOS>ATOM
     1 PA           2.4100     0.8740   -19.6700 P.3          1 AVV301   0.0000
     2 PN           4.5680    -0.8920   -20.4400 P.3          1 AVV301   0.0000
     3 F1A          9.1820     7.4210   -17.7930 F            1 AVV301   0.0000
     4 N1A          9.6020     7.2920   -20.1480 N.ar         1 AVV301   0.0000
     5 O1A          1.2500     1.0080   -18.7050 O.co2        1 AVV301   0.0000
     6 O1N          4.5970    -0.0180   -21.7280 O.co2        1 AVV301   0.0000
     7 C2A          8.7790     7.1520   -19.0600 C.ar         1 AVV301   0.0000
     8 O2A          2.1710     1.1910   -21.1400 O.co2        1 AVV301  -1.0000
     9 O2N          4.6000    -2.4300   -20.5890 O.co2        1 AVV301  -1.0000
    10 O3           3.1650    -0.5690   -19.6570 O.3          1 AVV301   0.0000
    11 N3A          7.5130     6.7420   -19.2210 N.ar         1 AVV301   0.0000
    12 C4A          7.0610     6.4640   -20.4540 C.ar         1 AVV301   0.0000
    13 C5A          7.8520     6.5870   -21.5760 C.ar         1 AVV301   0.0000
    14 C6A          9.1660     7.0180   -21.3990 C.ar         1 AVV301   0.0000
    15 N6A         10.0010     7.1690   -22.4460 N.pl3        1 AVV301   0.0000
    16 N7A          7.0670     6.2270   -22.6290 N.2          1 AVV301   0.0000
    17 C8A          5.8340     5.8890   -22.1580 C.2          1 AVV301   0.0000
    18 N9A          5.8660     6.0600   -20.8260 N.pl3        1 AVV301   0.0000
    19 C1'A         4.8680     5.8310   -19.7650 C.3          1 AVV301   0.0000
    20 C1'N         8.9660    -1.6080   -17.3770 C.3          1 AVV301   0.0000
    21 C2'A         3.4370     5.6140   -20.2430 C.3          1 AVV301   0.0000
    22 O2'A         2.6180     6.6670   -19.7100 O.3          1 AVV301   0.0000
    23 C2'N         8.2360    -1.7480   -16.0600 C.3          1 AVV301   0.0000
    24 O2'N         9.0860    -2.3820   -15.1100 O.3          1 AVV301   0.0000
    25 C3'A         3.0610     4.2240   -19.7190 C.3          1 AVV301   0.0000
    26 O3'A         2.0310     4.1880   -18.7020 O.3          1 AVV301   0.0000
    27 C3'N         6.9750    -2.5230   -16.4730 C.3          1 AVV301   0.0000
    28 O3'N         7.2730    -3.9120   -16.6080 O.3          1 AVV301   0.0000
    29 C4'A         4.3200     3.6710   -19.0800 C.3          1 AVV301   0.0000
    30 O4'A         5.3610     4.6320   -19.1520 O.3          1 AVV301   0.0000
    31 C4'N         6.6580    -1.9840   -17.8720 C.3          1 AVV301   0.0000
    32 O4'N         7.8990    -1.4920   -18.3520 O.3          1 AVV301   0.0000
    33 C5'A         4.6530     2.3660   -19.7500 C.3          1 AVV301   0.0000
    34 O5'A         3.6950     1.6160   -19.0300 O.3          1 AVV301   0.0000
    35 C5'N         5.7540    -0.7720   -17.9700 C.3          1 AVV301   0.0000
    36 O5'N         5.7020    -0.4080   -19.3440 O.3          1 AVV301   0.0000
    37 H6A1         9.6828     6.9676   -23.3724 H            1 AVV301   0.0000
    38 H6A2        10.9388     7.4825   -22.2965 H            1 AVV301   0.0000
    39 H8A          5.0548     5.5741   -22.6999 H            1 AVV301   0.0000
    40 H4           4.8947     6.5834   -19.1069 H            1 AVV301   0.0000
    41 H5           9.5296    -2.4136   -17.5595 H            1 AVV301   0.0000
    42 H6           9.5420    -0.7906   -17.3801 H            1 AVV301   0.0000
    43 H7           3.4033     5.6250   -21.2424 H            1 AVV301   0.0000
    44 H8           1.8985     6.2727   -19.1383 H            1 AVV301   0.0000
    45 H9           7.9765    -0.8426   -15.7241 H            1 AVV301   0.0000
    46 H10          9.7129    -3.0003   -15.5840 H            1 AVV301   0.0000
    47 H11          2.7927     3.6405   -20.4855 H            1 AVV301   0.0000
    48 H12          1.5240     3.3288   -18.7713 H            1 AVV301   0.0000
    49 H13          6.2197    -2.3668   -15.8365 H            1 AVV301   0.0000
    50 H14          7.5575    -4.1021   -17.5477 H            1 AVV301   0.0000
    51 H15          4.1280     3.4884   -18.1157 H            1 AVV301   0.0000
    52 H16          6.3221    -2.7187   -18.4614 H            1 AVV301   0.0000
    53 H17          5.5920     2.0674   -19.5792 H            1 AVV301   0.0000
    54 H18          4.4807     2.3772   -20.7350 H            1 AVV301   0.0000
    55 H19          6.1278    -0.0191   -17.4283 H            1 AVV301   0.0000
    56 H20          4.8379    -0.9982   -17.6389 H            1 AVV301   0.0000
@<TRIPOS>BOND
     1    1    5      ar
     2    1    8      ar
     3    1   10       1
     4    1   34       1
     5    2    6      ar
     6    2    9      ar
     7    2   10       1
     8    2   36       1
     9    3    7       1
    10    4    7      ar
    11    4   14      ar
    12    7   11      ar
    13   11   12      ar
    14   12   13      ar
    15   12   18       1
    16   13   14      ar
    17   13   16       1
    18   14   15       1
    19   16   17       2
    20   17   18       1
    21   18   19       1
    22   19   21       1
    23   19   30       1
    24   20   23       1
    25   20   32       1
    26   21   22       1
    27   21   25       1
    28   23   24       1
    29   23   27       1
    30   25   26       1
    31   25   29       1
    32   27   28       1
    33   27   31       1
    34   29   30       1
    35   29   33       1
    36   31   32       1
    37   31   35       1
    38   33   34       1
    39   35   36       1
    40   35   56       1
    41   35   55       1
    42   15   37       1
    43   15   38       1
    44   17   39       1
    45   19   40       1
    46   20   41       1
    47   20   42       1
    48   21   43       1
    49   22   44       1
    50   23   45       1
    51   24   46       1
    52   25   47       1
    53   26   48       1
    54   27   49       1
    55   28   50       1
    56   29   51       1
    57   31   52       1
    58   33   53       1
    59   33   54       1
@<TRIPOS>SUBSTRUCTURE
     1 AVV301      1 GROUP             4 B     AVV     0 **** AVV B 301
