@<TRIPOS>MOLECULE
4lm4_JPZ_1_ligand
   17    18     1     0     0
SMALL
NO_CHARGES


@<TRIPOS>ATOM
     1 C9           4.7040    11.7380    46.6180 C.ar         1 JPZ900   0.0000
     2 C8           4.0400    12.8440    47.1510 C.ar         1 JPZ900   0.0000
     3 C10          4.8380    11.5900    45.2350 C.ar         1 JPZ900   0.0000
     4 C7           3.5020    13.8150    46.2980 C.ar         1 JPZ900   0.0000
     5 C4           3.2520    14.4650    42.7230 C.2          1 JPZ900   0.0000
     6 C11          4.3050    12.5580    44.3770 C.ar         1 JPZ900   0.0000
     7 C6           3.6390    13.6700    44.9120 C.ar         1 JPZ900   0.0000
     8 C2           4.4200    12.4450    42.9830 C.2          1 JPZ900   0.0000
     9 N5           3.1300    14.6050    44.0690 N.pl3        1 JPZ900   0.0000
    10 N3           3.8890    13.4030    42.1810 N.2          1 JPZ900   0.0000
    11 O1           5.0370    11.4060    42.4320 O.2          1 JPZ900   0.0000
    12 H1           5.0867    11.0463    47.2305 H            1 JPZ900   0.0000
    13 H2           3.9486    12.9428    48.1419 H            1 JPZ900   0.0000
    14 H3           5.3135    10.7944    44.8596 H            1 JPZ900   0.0000
    15 H4           3.0229    14.6071    46.6761 H            1 JPZ900   0.0000
    16 H5           2.8625    15.1620    42.1209 H            1 JPZ900   0.0000
    17 H6           2.6605    15.4049    44.4427 H            1 JPZ900   0.0000
@<TRIPOS>BOND
     1    1    2      ar
     2    1    3      ar
     3    2    4      ar
     4    3    6      ar
     5    4    7      ar
     6    5    9       1
     7    5   10       2
     8    6    7      ar
     9    6    8       1
    10    7    9       1
    11    8   10       1
    12    8   11       2
    13    1   12       1
    14    2   13       1
    15    3   14       1
    16    4   15       1
    17    5   16       1
    18    9   17       1
@<TRIPOS>SUBSTRUCTURE
     1 JPZ900      1 GROUP             4 A     JPZ     0 **** JPZ A 900
