@<TRIPOS>MOLECULE
4cy8_FDA_3_ligand
   84    89     1     0     0
SMALL
NO_CHARGES


@<TRIPOS>ATOM
     1 PA          11.2310     9.1180   -64.9460 P.3          1 FDA1586   0.0000
     2 O1A         12.6440     9.1690   -65.4280 O.co2        1 FDA1586   0.0000
     3 O2A         10.9770     9.0230   -63.4420 O.co2        1 FDA1586  -1.0000
     4 O5B         10.3240     8.0500   -65.6860 O.3          1 FDA1586   0.0000
     5 C5B         10.5270     7.8240   -67.0830 C.3          1 FDA1586   0.0000
     6 C4B          9.8480     6.5010   -67.3740 C.3          1 FDA1586   0.0000
     7 O4B          9.8760     6.2180   -68.7730 O.3          1 FDA1586   0.0000
     8 C3B         10.5010     5.3050   -66.6670 C.3          1 FDA1586   0.0000
     9 O3B          9.4000     4.4530   -66.2680 O.3          1 FDA1586   0.0000
    10 C2B         11.3560     4.7490   -67.7760 C.3          1 FDA1586   0.0000
    11 O2B         11.6170     3.3530   -67.6660 O.3          1 FDA1586   0.0000
    12 C1B         10.4080     4.9020   -68.9450 C.3          1 FDA1586   0.0000
    13 N9A         10.9050     4.8940   -70.3490 N.pl3        1 FDA1586   0.0000
    14 C8A         11.9140     5.6100   -70.8990 C.2          1 FDA1586   0.0000
    15 N7A         11.9840     5.3540   -72.2450 N.2          1 FDA1586   0.0000
    16 C5A         10.9890     4.4800   -72.5490 C.ar         1 FDA1586   0.0000
    17 C6A         10.5170     3.7930   -73.7470 C.ar         1 FDA1586   0.0000
    18 N6A         11.1110     4.0390   -74.9230 N.pl3        1 FDA1586   0.0000
    19 N1A          9.4690     2.9440   -73.6540 N.ar         1 FDA1586   0.0000
    20 C2A          8.9040     2.7270   -72.4360 C.ar         1 FDA1586   0.0000
    21 N3A          9.2860     3.3240   -71.2880 N.ar         1 FDA1586   0.0000
    22 C4A         10.3020     4.1890   -71.3030 C.ar         1 FDA1586   0.0000
    23 N1          12.7330    15.4820   -57.2890 N.2          1 FDA1586   0.0000
    24 C2          12.0530    15.9670   -56.2060 C.2          1 FDA1586   0.0000
    25 O2          10.9110    16.4960   -56.3590 O.2          1 FDA1586   0.0000
    26 N3          12.5450    15.9160   -54.9450 N.pl3        1 FDA1586   0.0000
    27 C4          13.7600    15.3770   -54.6580 C.2          1 FDA1586   0.0000
    28 O4          14.1630    15.3200   -53.4370 O.2          1 FDA1586   0.0000
    29 C4X         14.5660    14.8420   -55.8400 C.2          1 FDA1586   0.0000
    30 N5          15.7710    14.2840   -55.6960 N.2          1 FDA1586   0.0000
    31 C5X         16.4610    13.7540   -56.7010 C.ar         1 FDA1586   0.0000
    32 C6          17.6930    13.1590   -56.4020 C.ar         1 FDA1586   0.0000
    33 C7          18.4270    12.5960   -57.4300 C.ar         1 FDA1586   0.0000
    34 C7M         19.7830    12.0130   -57.1310 C.3          1 FDA1586   0.0000
    35 C8          17.8820    12.5920   -58.8290 C.ar         1 FDA1586   0.0000
    36 C8M         18.7050    12.0110   -59.9410 C.3          1 FDA1586   0.0000
    37 C9          16.6490    13.1880   -59.1330 C.ar         1 FDA1586   0.0000
    38 C9A         15.9120    13.7960   -58.0940 C.ar         1 FDA1586   0.0000
    39 N10         14.6100    14.3700   -58.3080 N.pl3        1 FDA1586   0.0000
    40 C10         13.9210    14.8900   -57.1880 C.2          1 FDA1586   0.0000
    41 C1'         13.9750    14.4350   -59.6680 C.3          1 FDA1586   0.0000
    42 C2'         13.0360    13.2350   -59.9730 C.3          1 FDA1586   0.0000
    43 O2'         13.6540    11.9590   -59.6560 O.3          1 FDA1586   0.0000
    44 C3'         12.7250    13.2440   -61.4680 C.3          1 FDA1586   0.0000
    45 O3'         12.3870    14.6140   -61.8690 O.3          1 FDA1586   0.0000
    46 C4'         11.5470    12.3150   -61.7560 C.3          1 FDA1586   0.0000
    47 O4'         11.8640    10.8900   -61.7180 O.3          1 FDA1586   0.0000
    48 C5'         11.0280    12.6860   -63.1430 C.3          1 FDA1586   0.0000
    49 O5'          9.8660    11.9600   -63.2910 O.3          1 FDA1586   0.0000
    50 P            9.4190    11.4580   -64.7350 P.3          1 FDA1586   0.0000
    51 O1P          8.1970    10.5830   -64.6050 O.co2        1 FDA1586   0.0000
    52 O2P          9.3650    12.6780   -65.6170 O.co2        1 FDA1586  -1.0000
    53 O3P         10.6040    10.5470   -65.3920 O.3          1 FDA1586   0.0000
    54 H5B1        11.5036     7.7703   -67.2913 H            1 FDA1586   0.0000
    55 H5B2        10.1113     8.5573   -67.6209 H            1 FDA1586   0.0000
    56 H4B          8.8939     6.5618   -67.0807 H            1 FDA1586   0.0000
    57 H3B         11.0510     5.5924   -65.8828 H            1 FDA1586   0.0000
    58 H5           9.4040     4.3470   -65.2736 H            1 FDA1586   0.0000
    59 H2B         12.1952     5.2779   -67.9028 H            1 FDA1586   0.0000
    60 H7          10.7528     2.8501   -67.6808 H            1 FDA1586   0.0000
    61 H1B          9.6679     4.2354   -68.8558 H            1 FDA1586   0.0000
    62 H8A         12.5173     6.2317   -70.3994 H            1 FDA1586   0.0000
    63 H6A1        10.7951     3.5735   -75.7498 H            1 FDA1586   0.0000
    64 H6A2        11.8701     4.6881   -74.9737 H            1 FDA1586   0.0000
    65 H2A          8.1474     2.0749   -72.3877 H            1 FDA1586   0.0000
    66 H13         11.9946    16.2884   -54.1978 H            1 FDA1586   0.0000
    67 H14         18.0356    13.1416   -55.4627 H            1 FDA1586   0.0000
    68 H7M1        20.1819    11.6483   -57.9723 H            1 FDA1586   0.0000
    69 H7M2        20.3785    12.7264   -56.7617 H            1 FDA1586   0.0000
    70 H7M3        19.6890    11.2772   -56.4604 H            1 FDA1586   0.0000
    71 H8M1        18.2020    12.0856   -60.8021 H            1 FDA1586   0.0000
    72 H8M2        19.5674    12.5119   -60.0143 H            1 FDA1586   0.0000
    73 H8M3        18.8941    11.0482   -59.7478 H            1 FDA1586   0.0000
    74 H21         16.2983    13.1822   -60.0695 H            1 FDA1586   0.0000
    75 H1'1        14.7009    14.4513   -60.3556 H            1 FDA1586   0.0000
    76 H1'2        13.4404    15.2780   -59.7275 H            1 FDA1586   0.0000
    77 H2'         12.1870    13.3339   -59.4539 H            1 FDA1586   0.0000
    78 H25         13.1054    11.4849   -58.9674 H            1 FDA1586   0.0000
    79 H3'         13.5274    12.9346   -61.9783 H            1 FDA1586   0.0000
    80 H27         12.6524    14.7573   -62.8224 H            1 FDA1586   0.0000
    81 H4'         10.8265    12.4984   -61.0873 H            1 FDA1586   0.0000
    82 H29         11.2637    10.3981   -62.3486 H            1 FDA1586   0.0000
    83 H5'1        11.6925    12.4342   -63.8466 H            1 FDA1586   0.0000
    84 H5'2        10.8399    13.6666   -63.1979 H            1 FDA1586   0.0000
@<TRIPOS>BOND
     1    1    2      ar
     2    1    3      ar
     3    1    4       1
     4    1   53       1
     5    4    5       1
     6    5    6       1
     7    6    7       1
     8    6    8       1
     9    7   12       1
    10    8    9       1
    11    8   10       1
    12   10   11       1
    13   10   12       1
    14   12   13       1
    15   13   14       1
    16   13   22       1
    17   14   15       2
    18   15   16       1
    19   16   17      ar
    20   16   22      ar
    21   17   18       1
    22   17   19      ar
    23   19   20      ar
    24   20   21      ar
    25   21   22      ar
    26   23   24       1
    27   23   40       2
    28   24   25       2
    29   24   26       1
    30   26   27       1
    31   27   28       2
    32   27   29       1
    33   29   30       2
    34   29   40       1
    35   30   31       1
    36   31   32      ar
    37   31   38      ar
    38   32   33      ar
    39   33   34       1
    40   33   35      ar
    41   35   36       1
    42   35   37      ar
    43   37   38      ar
    44   38   39       1
    45   39   40       1
    46   39   41       1
    47   41   42       1
    48   42   43       1
    49   42   44       1
    50   44   45       1
    51   44   46       1
    52   46   47       1
    53   46   48       1
    54   48   49       1
    55   49   50       1
    56   50   51      ar
    57   50   52      ar
    58   50   53       1
    59   48   84       1
    60    5   54       1
    61    5   55       1
    62    6   56       1
    63    8   57       1
    64    9   58       1
    65   10   59       1
    66   11   60       1
    67   12   61       1
    68   14   62       1
    69   18   63       1
    70   18   64       1
    71   20   65       1
    72   26   66       1
    73   32   67       1
    74   34   68       1
    75   34   69       1
    76   34   70       1
    77   36   71       1
    78   36   72       1
    79   36   73       1
    80   37   74       1
    81   41   75       1
    82   41   76       1
    83   42   77       1
    84   43   78       1
    85   44   79       1
    86   45   80       1
    87   46   81       1
    88   47   82       1
    89   48   83       1
@<TRIPOS>SUBSTRUCTURE
     1 FDA1586     1 GROUP             4 C     FDA     0 **** FDA C1586
