@<TRIPOS>MOLECULE
3sys_VNL_1_ligand
   19    19     1     0     0
SMALL
NO_CHARGES


@<TRIPOS>ATOM
     1 C1         -25.2310    23.4240   -23.1930 C.ar         1 VNL414   0.0000
     2 CO1        -24.4360    24.5460   -23.3420 C.ar         1 VNL414   0.0000
     3 CO2        -25.5950    22.6860   -24.3140 C.ar         1 VNL414   0.0000
     4 CM1        -23.9930    24.9340   -24.5980 C.ar         1 VNL414   0.0000
     5 CM2        -25.1570    23.0710   -25.5750 C.ar         1 VNL414   0.0000
     6 OM         -25.4990    22.3410   -26.6980 O.3          1 VNL414   0.0000
     7 CZ         -24.3520    24.1910   -25.7060 C.ar         1 VNL414   0.0000
     8 CC         -25.7010    23.0610   -21.8190 C.2          1 VNL414   0.0000
     9 CV         -26.5220    21.4020   -26.6440 C.3          1 VNL414   0.0000
    10 O1         -26.6540    22.2530   -21.6480 O.co2        1 VNL414   0.0000
    11 O2         -25.1540    23.6150   -20.8310 O.co2        1 VNL414  -1.0000
    12 O3         -23.9250    24.5600   -26.9520 O.3          1 VNL414   0.0000
    13 HO1        -24.1785    25.0818   -22.5379 H            1 VNL414   0.0000
    14 HO2        -26.1732    21.8765   -24.2123 H            1 VNL414   0.0000
    15 HM1        -23.4179    25.7456   -24.7007 H            1 VNL414   0.0000
    16 HV1        -26.6294    20.9741   -27.5414 H            1 VNL414   0.0000
    17 HV2        -26.2968    20.7024   -25.9659 H            1 VNL414   0.0000
    18 HV3        -27.3759    21.8538   -26.3858 H            1 VNL414   0.0000
    19 H7         -24.1874    24.0190   -27.7510 H            1 VNL414   0.0000
@<TRIPOS>BOND
     1    1    2      ar
     2    1    3      ar
     3    1    8       1
     4    2    4      ar
     5    3    5      ar
     6    4    7      ar
     7    5    6       1
     8    5    7      ar
     9    6    9       1
    10    7   12       1
    11    8   10      ar
    12    8   11      ar
    13    2   13       1
    14    3   14       1
    15    4   15       1
    16    9   16       1
    17    9   17       1
    18    9   18       1
    19   12   19       1
@<TRIPOS>SUBSTRUCTURE
     1 VNL414      1 GROUP             4 A     VNL     0 **** VNL A 414
