@<TRIPOS>MOLECULE
3qdz_PRO_ALA_PRO_ARG_1_ligand
   65    66     3     0     0
SMALL
NO_CHARGES


@<TRIPOS>ATOM
     1 N           -0.6420    -9.4600    38.3810 N.4          1 PRO44    1.0000
     2 CA          -2.0400    -9.9270    38.5870 C.3          1 PRO44    0.0000
     3 C           -2.5720   -10.5940    37.3170 C.2          1 PRO44    0.0000
     4 O           -2.2350   -10.1830    36.1990 O.2          1 PRO44    0.0000
     5 CB          -2.8700    -8.7050    38.9720 C.3          1 PRO44    0.0000
     6 CG          -1.7990    -7.8240    39.6270 C.3          1 PRO44    0.0000
     7 CD          -0.5130    -8.0510    38.7900 C.3          1 PRO44    0.0000
     8 H1          -0.0217   -10.0214    38.9288 H            1 PRO44    0.0000
     9 HA          -2.0589   -10.5872    39.3378 H            1 PRO44    0.0000
    10 HB1         -3.2689    -8.2632    38.1685 H            1 PRO44    0.0000
    11 HB2         -3.5964    -8.9420    39.6171 H            1 PRO44    0.0000
    12 HG1         -2.0708    -6.8621    39.5974 H            1 PRO44    0.0000
    13 HG2         -1.6517    -8.0997    40.5769 H            1 PRO44    0.0000
    14 HD1         -0.4878    -7.4450    37.9950 H            1 PRO44    0.0000
    15 HD2          0.3078    -7.9092    39.3433 H            1 PRO44    0.0000
    16 N           -6.0250   -11.5070    35.3830 N.am         1 PRO44    0.0000
    17 CA          -7.4790   -11.4130    35.2100 C.3          1 PRO44    0.0000
    18 C           -7.9760   -12.6620    34.4670 C.2          1 PRO44    0.0000
    19 O           -7.1910   -13.3520    33.8090 O.2          1 PRO44    0.0000
    20 CB          -7.6410   -10.1230    34.4060 C.3          1 PRO44    0.0000
    21 CG          -6.3970   -10.0760    33.5880 C.3          1 PRO44    0.0000
    22 CD          -5.3330   -10.4810    34.5810 C.3          1 PRO44    0.0000
    23 H14         -7.9321   -11.3309    36.0977 H            1 PRO44    0.0000
    24 H15         -8.4526   -10.1629    33.8231 H            1 PRO44    0.0000
    25 H16         -7.7034    -9.3288    35.0104 H            1 PRO44    0.0000
    26 H17         -6.4424   -10.7206    32.8248 H            1 PRO44    0.0000
    27 H18         -6.2307    -9.1546    33.2367 H            1 PRO44    0.0000
    28 H19         -4.5324   -10.8621    34.1186 H            1 PRO44    0.0000
    29 H20         -5.0531    -9.7062    35.1479 H            1 PRO44    0.0000
    30 N           -3.3940   -11.6280    37.4970 N.am         2 ALA45    0.0000
    31 CA          -3.9510   -12.3720    36.3680 C.3          2 ALA45    0.0000
    32 C           -5.4770   -12.3450    36.2810 C.2          2 ALA45    0.0000
    33 O           -6.1660   -13.0600    37.0150 O.2          2 ALA45    0.0000
    34 CB          -3.4630   -13.8290    36.4110 C.3          2 ALA45    0.0000
    35 H9          -3.6359   -11.9018    38.4279 H            2 ALA45    0.0000
    36 H10         -3.5942   -11.9594    35.5299 H            2 ALA45    0.0000
    37 H11         -3.8471   -14.3322    35.6369 H            2 ALA45    0.0000
    38 H12         -2.4646   -13.8478    36.3584 H            2 ALA45    0.0000
    39 HB3         -3.7599   -14.2549    37.2657 H            2 ALA45    0.0000
    40 N           -9.2690   -12.9560    34.5670 N.am         3 ARG47    0.0000
    41 CA          -9.8150   -14.1460    33.9220 C.3          3 ARG47    0.0000
    42 C          -10.6190   -13.8710    32.6450 C.2          3 ARG47    0.0000
    43 O          -11.1100   -14.8410    32.0240 O.co2        3 ARG47    0.0000
    44 CB         -10.6400   -14.9380    34.9580 C.3          3 ARG47    0.0000
    45 CG          -9.7600   -15.5400    36.0770 C.3          3 ARG47    0.0000
    46 CD         -10.5280   -16.1500    37.2570 C.3          3 ARG47    0.0000
    47 NE          -9.6210   -16.8860    38.1460 N.pl3        3 ARG47    1.0000
    48 CZ          -9.9300   -17.3440    39.3600 C.cat        3 ARG47    0.0000
    49 NH1        -11.1400   -17.1530    39.8740 N.pl3        3 ARG47    0.0000
    50 NH2         -9.0170   -17.9960    40.0650 N.pl3        3 ARG47    0.0000
    51 OXT        -10.7490   -12.6860    32.2730 O.co2        3 ARG47   -1.0000
    52 H21         -9.8738   -12.3553    35.0898 H            3 ARG47    0.0000
    53 H22         -9.0394   -14.7213    33.6625 H            3 ARG47    0.0000
    54 H23        -11.1159   -15.6818    34.4886 H            3 ARG47    0.0000
    55 H24        -11.3104   -14.3227    35.3728 H            3 ARG47    0.0000
    56 H25         -9.1726   -14.8132    36.4330 H            3 ARG47    0.0000
    57 H26         -9.1937   -16.2581    35.6724 H            3 ARG47    0.0000
    58 H27        -11.2234   -16.7772    36.9062 H            3 ARG47    0.0000
    59 H28        -10.9704   -15.4172    37.7740 H            3 ARG47    0.0000
    60 HE          -8.6938   -17.0585    37.8136 H            3 ARG47    0.0000
    61 HH11       -11.3569   -17.5023    40.7856 H            3 ARG47    0.0000
    62 HH12       -11.8340   -16.6599    39.3494 H            3 ARG47    0.0000
    63 HH21        -9.2419   -18.3421    40.9759 H            3 ARG47    0.0000
    64 HH22        -8.1031   -18.1420    39.6862 H            3 ARG47    0.0000
    65 H34         -0.4036    -9.5467    37.4137 H            3 ARG47    0.0000
@<TRIPOS>BOND
     1    1    7       1
     2    1    2       1
     3    7    6       1
     4    6    5       1
     5    5    2       1
     6    2    3       1
     7    3    4       2
     8    1    8       1
     9    2    9       1
    10    3   30      am
    11    5   10       1
    12    5   11       1
    13    6   12       1
    14    6   13       1
    15    7   14       1
    16    7   15       1
    17   30   31       1
    18   31   34       1
    19   31   32       1
    20   32   33       2
    21   34   39       1
    22   30   35       1
    23   31   36       1
    24   32   16      am
    25   34   37       1
    26   34   38       1
    27   16   22       1
    28   16   17       1
    29   22   21       1
    30   21   20       1
    31   20   17       1
    32   17   18       1
    33   18   19       2
    34   22   29       1
    35   17   23       1
    36   18   40      am
    37   20   24       1
    38   20   25       1
    39   21   26       1
    40   21   27       1
    41   22   28       1
    42   40   41       1
    43   41   44       1
    44   41   42       1
    45   44   45       1
    46   45   46       1
    47   46   47       1
    48   47   48      ar
    49   48   49      ar
    50   48   50      ar
    51   42   43      ar
    52   42   51      ar
    53   50   64       1
    54   40   52       1
    55   41   53       1
    56   44   54       1
    57   44   55       1
    58   45   56       1
    59   45   57       1
    60   46   58       1
    61   46   59       1
    62   47   60       1
    63   49   61       1
    64   49   62       1
    65   50   63       1
    66    1   65       1
@<TRIPOS>SUBSTRUCTURE
     1 PRO44       1 RESIDUE           4 F     PRO     0 **** PRO F  44
     2 ALA45      30 RESIDUE           4 F     ALA     0 **** ALA F  45
     3 ARG47      40 RESIDUE           4 F     ARG     0 **** ARG F  47
