@<TRIPOS>MOLECULE
2o98_FSC_2_ligand
  104   107     1     0     0
SMALL
NO_CHARGES


@<TRIPOS>ATOM
     1 C1         -13.3240    84.7720    87.4330 C.2          1 FSC1002   0.0000
     2 C4         -13.6550    85.4430    88.5410 C.2          1 FSC1002   0.0000
     3 C11        -15.0660    85.6970    88.9720 C.3          1 FSC1002   0.0000
     4 C18        -15.4550    87.1650    88.7980 C.3          1 FSC1002   0.0000
     5 C17        -15.2730    85.1830    90.3820 C.3          1 FSC1002   0.0000
     6 O24        -16.6500    85.4060    90.6720 O.3          1 FSC1002   0.0000
     7 C31        -17.3220    84.6610    91.6920 C.2          1 FSC1002   0.0000
     8 O37        -16.7640    83.6720    92.1160 O.2          1 FSC1002   0.0000
     9 C36        -18.6480    85.1470    92.1570 C.3          1 FSC1002   0.0000
    10 C10        -12.4570    85.9240    89.3140 C.3          1 FSC1002   0.0000
    11 C6         -11.3510    85.1080    88.6440 C.3          1 FSC1002   0.0000
    12 O13        -10.0740    85.7850    88.6850 O.3          1 FSC1002   0.0000
    13 C2         -11.8510    84.7340    87.2280 C.3          1 FSC1002   0.0000
    14 C7         -11.4190    83.3250    86.8460 C.3          1 FSC1002   0.0000
    15 C5         -11.3040    85.7950    86.2780 C.2          1 FSC1002   0.0000
    16 C12        -11.8910    86.7430    85.5230 C.2          1 FSC1002   0.0000
    17 C20        -11.0230    87.6910    84.7660 C.3          1 FSC1002   0.0000
    18 C27        -10.1390    87.0860    83.6880 C.3          1 FSC1002   0.0000
    19 O32         -9.2550    88.1210    83.2340 O.3          1 FSC1002   0.0000
    20 C38         -8.3650    87.6230    82.2380 C.3          1 FSC1002   0.0000
    21 C26        -11.9530    88.7270    84.1750 C.3          1 FSC1002   0.0000
    22 C25        -13.3710    88.2780    84.4870 C.3          1 FSC1002   0.0000
    23 C19        -13.3510    87.0560    85.3780 C.3          1 FSC1002   0.0000
    24 C15        -14.2130    85.9780    84.7030 C.3          1 FSC1002   0.0000
    25 C23        -13.4930    85.1220    83.6500 C.3          1 FSC1002   0.0000
    26 C9         -15.0040    85.1340    85.7030 C.3          1 FSC1002   0.0000
    27 O16        -15.9480    84.4350    84.9100 O.3          1 FSC1002   0.0000
    28 C3         -14.2490    84.0740    86.4820 C.3          1 FSC1002   0.0000
    29 O8         -15.1570    83.1770    87.1890 O.3          1 FSC1002   0.0000
    30 C14        -15.0320    81.7270    87.0170 C.3          1 FSC1002   0.0000
    31 O22        -13.8250    81.2140    87.5880 O.3          1 FSC1002   0.0000
    32 C30        -13.6840    81.2850    89.0210 C.3          1 FSC1002   0.0000
    33 C33        -14.8270    80.5940    89.7500 C.3          1 FSC1002   0.0000
    34 O39        -14.7660    80.7760    91.1750 O.3          1 FSC1002   0.0000
    35 C28        -16.1510    81.1040    89.2260 C.3          1 FSC1002   0.0000
    36 O34        -17.1470    80.3110    89.8670 O.3          1 FSC1002   0.0000
    37 C40        -18.3690    81.0210    90.2720 C.2          1 FSC1002   0.0000
    38 O43        -19.1160    81.4420    89.3860 O.2          1 FSC1002   0.0000
    39 C42        -18.7140    81.2020    91.7390 C.3          1 FSC1002   0.0000
    40 C21        -16.1480    80.9100    87.7010 C.3          1 FSC1002   0.0000
    41 O29        -17.4580    81.1200    87.1460 O.3          1 FSC1002   0.0000
    42 C35        -12.3380    80.6790    89.4080 C.3          1 FSC1002   0.0000
    43 O41        -12.3970    79.2580    89.6140 O.3          1 FSC1002   0.0000
    44 C44        -11.3120    78.6850    90.3830 C.3          1 FSC1002   0.0000
    45 C47         -9.9900    78.9730    89.6860 C.3          1 FSC1002   0.0000
    46 C46        -11.4640    77.1730    90.4910 C.3          1 FSC1002   0.0000
    47 C45        -11.2900    79.1900    91.8180 C.2          1 FSC1002   0.0000
    48 C48        -10.7090    80.3340    92.1620 C.2          1 FSC1002   0.0000
    49 H1         -15.6595    85.1608    88.3718 H            1 FSC1002   0.0000
    50 H2         -16.4008    87.2967    89.0950 H            1 FSC1002   0.0000
    51 H3         -14.8494    87.7380    89.3502 H            1 FSC1002   0.0000
    52 H4         -15.3693    87.4207    87.8350 H            1 FSC1002   0.0000
    53 H5         -14.6949    85.6852    91.0251 H            1 FSC1002   0.0000
    54 H6         -15.0589    84.2075    90.4330 H            1 FSC1002   0.0000
    55 H7         -18.9977    84.5344    92.8658 H            1 FSC1002   0.0000
    56 H8         -18.5525    86.0694    92.5311 H            1 FSC1002   0.0000
    57 H9         -19.2856    85.1640    91.3868 H            1 FSC1002   0.0000
    58 H10        -12.5355    85.7107    90.2878 H            1 FSC1002   0.0000
    59 H11        -12.3128    86.9068    89.1986 H            1 FSC1002   0.0000
    60 H12        -11.2540    84.2571    89.1603 H            1 FSC1002   0.0000
    61 H13        -10.1460    86.6615    88.2090 H            1 FSC1002   0.0000
    62 H14        -10.4285    83.3055    86.7095 H            1 FSC1002   0.0000
    63 H15        -11.6672    82.6903    87.5778 H            1 FSC1002   0.0000
    64 H16        -11.8775    83.0537    85.9997 H            1 FSC1002   0.0000
    65 H17        -10.3071    85.7843    86.2002 H            1 FSC1002   0.0000
    66 H18        -10.4291    88.1536    85.4242 H            1 FSC1002   0.0000
    67 H19        -10.7007    86.7577    82.9286 H            1 FSC1002   0.0000
    68 H20         -9.6108    86.3253    84.0651 H            1 FSC1002   0.0000
    69 H21         -7.7585    88.3582    81.9353 H            1 FSC1002   0.0000
    70 H22         -7.8197    86.8774    82.6210 H            1 FSC1002   0.0000
    71 H23         -8.8925    87.2840    81.4590 H            1 FSC1002   0.0000
    72 H24        -11.8202    88.7835    83.1855 H            1 FSC1002   0.0000
    73 H25        -11.7772    89.6213    84.5865 H            1 FSC1002   0.0000
    74 H26        -13.8421    88.0560    83.6333 H            1 FSC1002   0.0000
    75 H27        -13.8563    89.0179    84.9528 H            1 FSC1002   0.0000
    76 H28        -13.7367    87.2847    86.2718 H            1 FSC1002   0.0000
    77 H29        -14.9057    86.4862    84.1911 H            1 FSC1002   0.0000
    78 H30        -14.1323    84.4535    83.2700 H            1 FSC1002   0.0000
    79 H31        -13.1524    85.7114    82.9174 H            1 FSC1002   0.0000
    80 H32        -12.7256    84.6439    84.0771 H            1 FSC1002   0.0000
    81 H33        -15.4850    85.7362    86.3401 H            1 FSC1002   0.0000
    82 H34        -16.7729    84.2625    85.4483 H            1 FSC1002   0.0000
    83 H35        -13.7019    83.5353    85.8413 H            1 FSC1002   0.0000
    84 H36        -15.0369    81.5192    86.0389 H            1 FSC1002   0.0000
    85 H37        -13.6809    82.2489    89.2873 H            1 FSC1002   0.0000
    86 H38        -14.7722    79.6141    89.5581 H            1 FSC1002   0.0000
    87 H39        -15.2737    81.5996    91.4279 H            1 FSC1002   0.0000
    88 H40        -16.2704    82.0698    89.4561 H            1 FSC1002   0.0000
    89 H41        -19.5746    81.7049    91.8195 H            1 FSC1002   0.0000
    90 H42        -18.8100    80.3057    92.1719 H            1 FSC1002   0.0000
    91 H43        -17.9847    81.7146    92.1922 H            1 FSC1002   0.0000
    92 H44        -15.9278    79.9476    87.5419 H            1 FSC1002   0.0000
    93 H45        -18.1467    80.9939    87.8600 H            1 FSC1002   0.0000
    94 H46        -12.0265    81.1105    90.2546 H            1 FSC1002   0.0000
    95 H47        -11.6823    80.8675    88.6769 H            1 FSC1002   0.0000
    96 H48         -9.2403    78.5775    90.2166 H            1 FSC1002   0.0000
    97 H49        -10.0004    78.5689    88.7714 H            1 FSC1002   0.0000
    98 H50         -9.8606    79.9618    89.6121 H            1 FSC1002   0.0000
    99 H51        -10.7056    76.7990    91.0249 H            1 FSC1002   0.0000
   100 H52        -12.3290    76.9564    90.9436 H            1 FSC1002   0.0000
   101 H53        -11.4571    76.7710    89.5754 H            1 FSC1002   0.0000
   102 H54        -11.7292    78.6403    92.5286 H            1 FSC1002   0.0000
   103 H55        -10.7162    80.6312    93.1168 H            1 FSC1002   0.0000
   104 H56        -10.2644    80.8980    91.4662 H            1 FSC1002   0.0000
@<TRIPOS>BOND
     1    1    2       2
     2    1   13       1
     3    1   28       1
     4    2    3       1
     5    2   10       1
     6    3    4       1
     7    3    5       1
     8    5    6       1
     9    6    7       1
    10    7    8       2
    11    7    9       1
    12   10   11       1
    13   11   12       1
    14   11   13       1
    15   13   14       1
    16   13   15       1
    17   15   16       2
    18   16   17       1
    19   16   23       1
    20   17   18       1
    21   17   21       1
    22   18   19       1
    23   19   20       1
    24   21   22       1
    25   22   23       1
    26   23   24       1
    27   24   25       1
    28   24   26       1
    29   26   27       1
    30   26   28       1
    31   28   29       1
    32   29   30       1
    33   30   31       1
    34   30   40       1
    35   31   32       1
    36   32   33       1
    37   32   42       1
    38   33   34       1
    39   33   35       1
    40   35   36       1
    41   35   40       1
    42   36   37       1
    43   37   38       2
    44   37   39       1
    45   40   41       1
    46   42   43       1
    47   43   44       1
    48   44   45       1
    49   44   46       1
    50   44   47       1
    51   47   48       2
    52    3   49       1
    53    4   50       1
    54    4   51       1
    55    4   52       1
    56    5   53       1
    57    5   54       1
    58    9   55       1
    59    9   56       1
    60    9   57       1
    61   10   58       1
    62   10   59       1
    63   11   60       1
    64   12   61       1
    65   14   62       1
    66   14   63       1
    67   14   64       1
    68   15   65       1
    69   17   66       1
    70   18   67       1
    71   18   68       1
    72   20   69       1
    73   20   70       1
    74   20   71       1
    75   21   72       1
    76   21   73       1
    77   22   74       1
    78   22   75       1
    79   23   76       1
    80   24   77       1
    81   25   78       1
    82   25   79       1
    83   25   80       1
    84   26   81       1
    85   27   82       1
    86   28   83       1
    87   30   84       1
    88   32   85       1
    89   33   86       1
    90   34   87       1
    91   35   88       1
    92   39   89       1
    93   39   90       1
    94   39   91       1
    95   40   92       1
    96   41   93       1
    97   42   94       1
    98   42   95       1
    99   45   96       1
   100   45   97       1
   101   45   98       1
   102   46   99       1
   103   46  100       1
   104   46  101       1
   105   47  102       1
   106   48  103       1
   107   48  104       1
@<TRIPOS>SUBSTRUCTURE
     1 FSC1002     1 GROUP             4 B     FSC     0 **** FSC B1002
