@<TRIPOS>MOLECULE
3i1l_SIO_1_ligand
   52    52     1     0     0
SMALL
NO_CHARGES


@<TRIPOS>ATOM
     1 OA4        -10.4810   -13.2150    18.8230 O.2          1 SIO1001   0.0000
     2 CA4        -11.6170   -13.1140    19.2550 C.2          1 SIO1001   0.0000
     3 CM4        -12.1360   -13.9920    20.3620 C.3          1 SIO1001   0.0000
     4 O4         -12.4840   -12.0910    18.6870 O.3          1 SIO1001   0.0000
     5 C4         -12.9340   -12.3280    17.3560 C.3          1 SIO1001   0.0000
     6 C5         -13.1100   -10.9600    16.6740 C.3          1 SIO1001   0.0000
     7 N5         -11.7700   -10.5420    16.2410 N.am         1 SIO1001   0.0000
     8 C10        -10.9950    -9.6240    16.8430 C.2          1 SIO1001   0.0000
     9 O10        -11.3030    -8.9960    17.8470 O.2          1 SIO1001   0.0000
    10 C11         -9.6660    -9.3910    16.1900 C.3          1 SIO1001   0.0000
    11 C3         -14.2050   -13.1760    17.4470 C.3          1 SIO1001   0.0000
    12 C2         -15.1890   -13.0610    16.2720 C.3          1 SIO1001   0.0000
    13 O2         -16.4950   -13.2990    16.7770 O.3          1 SIO1001   0.0000
    14 CM2        -17.5170   -12.8920    15.8800 C.3          1 SIO1001   0.0000
    15 C1         -14.8680   -14.1370    15.2480 C.2          1 SIO1001   0.0000
    16 O1         -14.4180   -15.2200    15.6780 O.co2        1 SIO1001   0.0000
    17 O3         -15.0720   -13.9380    14.0250 O.co2        1 SIO1001  -1.0000
    18 O6         -15.1900   -11.7420    15.6970 O.3          1 SIO1001   0.0000
    19 C6         -13.9390   -11.1190    15.3970 C.3          1 SIO1001   0.0000
    20 C7         -14.2970    -9.8210    14.6720 C.3          1 SIO1001   0.0000
    21 O7         -14.6840    -8.7780    15.5760 O.3          1 SIO1001   0.0000
    22 C8         -15.4620   -10.0490    13.7130 C.3          1 SIO1001   0.0000
    23 O8         -15.2400   -11.2510    12.9690 O.3          1 SIO1001   0.0000
    24 C9         -15.6020    -8.8870    12.7420 C.3          1 SIO1001   0.0000
    25 O9         -14.3540    -8.6710    12.0850 O.3          1 SIO1001   0.0000
    26 CA9        -14.2150    -7.5880    11.1300 C.2          1 SIO1001   0.0000
    27 OA9        -15.0730    -6.7170    11.1130 O.2          1 SIO1001   0.0000
    28 CM9        -13.0340    -7.5820    10.2050 C.3          1 SIO1001   0.0000
    29 HM41       -13.0842   -13.7474    20.5647 H            1 SIO1001   0.0000
    30 HM42       -12.0925   -14.9493    20.0763 H            1 SIO1001   0.0000
    31 HM43       -11.5761   -13.8626    21.1804 H            1 SIO1001   0.0000
    32 H4         -12.2337   -12.8464    16.8652 H            1 SIO1001   0.0000
    33 H5         -13.5191   -10.2914    17.2950 H            1 SIO1001   0.0000
    34 H6         -11.4002   -10.9813    15.4223 H            1 SIO1001   0.0000
    35 H7          -9.1601    -8.6969    16.7021 H            1 SIO1001   0.0000
    36 H8          -9.1449   -10.2444    16.1810 H            1 SIO1001   0.0000
    37 H9          -9.8065    -9.0762    15.2513 H            1 SIO1001   0.0000
    38 H10        -14.6912   -12.9071    18.2784 H            1 SIO1001   0.0000
    39 H11        -13.9271   -14.1340    17.5184 H            1 SIO1001   0.0000
    40 HM21       -18.4113   -13.0822    16.2851 H            1 SIO1001   0.0000
    41 HM22       -17.4334   -11.9115    15.7021 H            1 SIO1001   0.0000
    42 HM23       -17.4264   -13.3956    15.0208 H            1 SIO1001   0.0000
    43 H15        -13.4359   -11.7072    14.7638 H            1 SIO1001   0.0000
    44 H16        -13.5026    -9.5149    14.1474 H            1 SIO1001   0.0000
    45 H17        -14.4408    -7.8905    15.1847 H            1 SIO1001   0.0000
    46 H18        -16.3073   -10.1404    14.2394 H            1 SIO1001   0.0000
    47 H19        -15.1706   -12.0247    13.5987 H            1 SIO1001   0.0000
    48 H20        -15.8632    -8.0620    13.2432 H            1 SIO1001   0.0000
    49 H21        -16.3045    -9.1012    12.0633 H            1 SIO1001   0.0000
    50 HM91       -13.0793    -6.7782     9.6118 H            1 SIO1001   0.0000
    51 HM92       -12.1906    -7.5533    10.7415 H            1 SIO1001   0.0000
    52 HM93       -13.0449    -8.4105     9.6451 H            1 SIO1001   0.0000
@<TRIPOS>BOND
     1    1    2       2
     2    2    3       1
     3    2    4       1
     4    4    5       1
     5    5    6       1
     6    5   11       1
     7    6    7       1
     8    6   19       1
     9    7    8      am
    10    8    9       2
    11    8   10       1
    12   11   12       1
    13   12   13       1
    14   12   15       1
    15   12   18       1
    16   13   14       1
    17   15   16      ar
    18   15   17      ar
    19   18   19       1
    20   19   20       1
    21   20   21       1
    22   20   22       1
    23   22   23       1
    24   22   24       1
    25   24   25       1
    26   25   26       1
    27   26   27       2
    28   26   28       1
    29    3   29       1
    30    3   30       1
    31    3   31       1
    32    5   32       1
    33    6   33       1
    34    7   34       1
    35   10   35       1
    36   10   36       1
    37   10   37       1
    38   11   38       1
    39   11   39       1
    40   14   40       1
    41   14   41       1
    42   14   42       1
    43   28   52       1
    44   19   43       1
    45   20   44       1
    46   21   45       1
    47   22   46       1
    48   23   47       1
    49   24   48       1
    50   24   49       1
    51   28   50       1
    52   28   51       1
@<TRIPOS>SUBSTRUCTURE
     1 SIO1001     1 GROUP             4 A     SIO     0 **** SIO A1001
