@<TRIPOS>MOLECULE
3wo2_CPS_4_ligand
   70    73     1     0     0
SMALL
NO_CHARGES


@<TRIPOS>ATOM
     1 C1          35.9840   103.1630   150.5050 C.3          1 CPS201   0.0000
     2 C2          34.9230   102.9280   149.4090 C.3          1 CPS201   0.0000
     3 C3          36.8220   102.8550   147.5800 C.3          1 CPS201   0.0000
     4 C4          37.3420   103.3430   146.2130 C.3          1 CPS201   0.0000
     5 C5          36.2870   103.2840   145.0810 C.3          1 CPS201   0.0000
     6 C6          35.0440   104.0450   145.5850 C.3          1 CPS201   0.0000
     7 C7          34.1750   104.3930   144.3810 C.3          1 CPS201   0.0000
     8 C8          35.1980   104.5450   143.2610 C.3          1 CPS201   0.0000
     9 C9          36.5700   104.1390   143.8210 C.3          1 CPS201   0.0000
    10 C10         36.0000   101.8030   144.7200 C.3          1 CPS201   0.0000
    11 C11         34.6960   101.4070   149.3920 C.3          1 CPS201   0.0000
    12 C12         36.1210   104.6140   150.9750 C.3          1 CPS201   0.0000
    13 C13         34.8070   105.1570   151.5380 C.3          1 CPS201   0.0000
    14 C14         33.6150   104.9220   150.5990 C.3          1 CPS201   0.0000
    15 C15         33.5700   103.5980   149.8070 C.3          1 CPS201   0.0000
    16 C16         32.5310   103.7330   148.6740 C.3          1 CPS201   0.0000
    17 C17         33.0970   104.2400   147.3370 C.3          1 CPS201   0.0000
    18 C18         34.3910   103.5200   146.8910 C.3          1 CPS201   0.0000
    19 C19         35.4510   103.4290   148.0270 C.3          1 CPS201   0.0000
    20 C20         37.5920   103.7690   142.7100 C.3          1 CPS201   0.0000
    21 C21         38.9240   103.1260   143.1150 C.3          1 CPS201   0.0000
    22 C22         37.8020   104.8780   141.6640 C.3          1 CPS201   0.0000
    23 C23         38.5560   106.1290   142.1380 C.3          1 CPS201   0.0000
    24 C24         39.1330   106.8720   140.9510 C.2          1 CPS201   0.0000
    25 N1          40.2690   106.3960   140.4430 N.am         1 CPS201   0.0000
    26 O1          38.5700   107.8590   140.4970 O.2          1 CPS201   0.0000
    27 O2          34.9530   106.5700   151.7280 O.3          1 CPS201   0.0000
    28 O3          33.2640   105.6640   147.3970 O.3          1 CPS201   0.0000
    29 O4          37.9400   104.6400   146.3740 O.3          1 CPS201   0.0000
    30 H1          36.8700   102.8682   150.1470 H            1 CPS201   0.0000
    31 H2          35.7412   102.6024   151.2967 H            1 CPS201   0.0000
    32 H3          37.4991   103.1043   148.2723 H            1 CPS201   0.0000
    33 H4          36.7387   101.8593   147.5386 H            1 CPS201   0.0000
    34 H5          38.0785   102.7202   145.9492 H            1 CPS201   0.0000
    35 H6          35.4169   104.9315   145.8589 H            1 CPS201   0.0000
    36 H7          33.6757   105.2463   144.5314 H            1 CPS201   0.0000
    37 H8          33.5268   103.6585   144.1799 H            1 CPS201   0.0000
    38 H9          35.2246   105.4954   142.9511 H            1 CPS201   0.0000
    39 H10         34.9540   103.9511   142.4943 H            1 CPS201   0.0000
    40 H11         36.9312   104.9931   144.1951 H            1 CPS201   0.0000
    41 H12         35.3187   101.7641   143.9890 H            1 CPS201   0.0000
    42 H13         36.8447   101.3652   144.4121 H            1 CPS201   0.0000
    43 H14         35.6515   101.3249   145.5262 H            1 CPS201   0.0000
    44 H15         34.0131   101.1796   148.6978 H            1 CPS201   0.0000
    45 H16         35.5561   100.9440   149.1777 H            1 CPS201   0.0000
    46 H17         34.3713   101.1084   150.2894 H            1 CPS201   0.0000
    47 H18         36.3989   105.1804   150.1991 H            1 CPS201   0.0000
    48 H19         36.8210   104.6583   151.6877 H            1 CPS201   0.0000
    49 H20         34.6222   104.7233   152.4199 H            1 CPS201   0.0000
    50 H21         33.6090   105.6679   149.9329 H            1 CPS201   0.0000
    51 H22         32.7849   104.9649   151.1550 H            1 CPS201   0.0000
    52 H23         33.1540   102.9479   150.4428 H            1 CPS201   0.0000
    53 H24         31.8238   104.3727   148.9750 H            1 CPS201   0.0000
    54 H25         32.1224   102.8337   148.5178 H            1 CPS201   0.0000
    55 H26         32.4052   104.0563   146.6387 H            1 CPS201   0.0000
    56 H27         34.1216   102.5766   146.6974 H            1 CPS201   0.0000
    57 H28         35.6630   104.3895   148.2075 H            1 CPS201   0.0000
    58 H29         37.1291   103.0465   142.1964 H            1 CPS201   0.0000
    59 H30         39.4705   102.9476   142.2967 H            1 CPS201   0.0000
    60 H31         39.4230   103.7460   143.7204 H            1 CPS201   0.0000
    61 H32         38.7471   102.2650   143.5919 H            1 CPS201   0.0000
    62 H33         36.9004   105.1691   141.3439 H            1 CPS201   0.0000
    63 H34         38.3152   104.4840   140.9015 H            1 CPS201   0.0000
    64 H35         39.2986   105.8554   142.7494 H            1 CPS201   0.0000
    65 H36         37.9244   106.7294   142.6285 H            1 CPS201   0.0000
    66 H37         40.6940   106.8479   139.6587 H            1 CPS201   0.0000
    67 H38         40.6966   105.5869   140.8460 H            1 CPS201   0.0000
    68 H39         34.1030   106.9464   152.0965 H            1 CPS201   0.0000
    69 H40         33.6320   105.9934   146.5275 H            1 CPS201   0.0000
    70 H41         38.6694   104.7568   145.6999 H            1 CPS201   0.0000
@<TRIPOS>BOND
     1    1    2       1
     2    1   12       1
     3    2   11       1
     4    2   15       1
     5    2   19       1
     6    3    4       1
     7    3   19       1
     8    4    5       1
     9    4   29       1
    10    5    6       1
    11    5    9       1
    12    5   10       1
    13    6    7       1
    14    6   18       1
    15    7    8       1
    16    8    9       1
    17    9   20       1
    18   12   13       1
    19   13   14       1
    20   13   27       1
    21   14   15       1
    22   15   16       1
    23   16   17       1
    24   17   18       1
    25   17   28       1
    26   18   19       1
    27   20   21       1
    28   20   22       1
    29   22   23       1
    30   23   24       1
    31   24   25      am
    32   24   26       2
    33    1   30       1
    34    1   31       1
    35    3   32       1
    36    3   33       1
    37    4   34       1
    38    6   35       1
    39    7   36       1
    40    7   37       1
    41    8   38       1
    42    8   39       1
    43    9   40       1
    44   10   41       1
    45   10   42       1
    46   10   43       1
    47   11   44       1
    48   11   45       1
    49   11   46       1
    50   12   47       1
    51   12   48       1
    52   13   49       1
    53   14   50       1
    54   14   51       1
    55   15   52       1
    56   16   53       1
    57   16   54       1
    58   17   55       1
    59   18   56       1
    60   19   57       1
    61   20   58       1
    62   21   59       1
    63   21   60       1
    64   21   61       1
    65   22   62       1
    66   22   63       1
    67   23   64       1
    68   23   65       1
    69   25   66       1
    70   25   67       1
    71   27   68       1
    72   28   69       1
    73   29   70       1
@<TRIPOS>SUBSTRUCTURE
     1 CPS201      1 GROUP             4 B     CPS     0 **** CPS B 201
