@<TRIPOS>MOLECULE
1eii_RTL_1_ligand
   51    51     1     0     0
SMALL
NO_CHARGES


@<TRIPOS>ATOM
     1 C1          47.9740    52.3480    57.9100 C.3          1 RTL135   0.0000
     2 C2          47.4340    51.0630    57.2570 C.3          1 RTL135   0.0000
     3 C3          47.4600    49.8650    58.1990 C.3          1 RTL135   0.0000
     4 C4          48.2270    50.0970    59.5090 C.3          1 RTL135   0.0000
     5 C5          49.3390    50.9870    59.3860 C.2          1 RTL135   0.0000
     6 C6          49.2070    52.0770    58.6210 C.2          1 RTL135   0.0000
     7 C7          50.2780    53.0770    58.3810 C.2          1 RTL135   0.0000
     8 C8          50.1030    54.3580    58.7320 C.2          1 RTL135   0.0000
     9 C9          51.0950    55.4390    58.5230 C.2          1 RTL135   0.0000
    10 C10         50.8160    56.5320    57.7680 C.2          1 RTL135   0.0000
    11 C11         51.8510    57.5550    57.6340 C.2          1 RTL135   0.0000
    12 C12         51.7400    58.8320    57.9930 C.2          1 RTL135   0.0000
    13 C13         52.8040    59.8540    57.8600 C.2          1 RTL135   0.0000
    14 C14         52.6190    60.9630    57.1060 C.2          1 RTL135   0.0000
    15 C15         53.6760    62.0150    56.9700 C.3          1 RTL135   0.0000
    16 O1          53.6780    62.4780    55.6470 O.3          1 RTL135   0.0000
    17 C16         47.9800    53.5620    57.0090 C.3          1 RTL135   0.0000
    18 C17         46.9500    52.9730    58.8440 C.3          1 RTL135   0.0000
    19 C18         50.5260    50.5470    60.1630 C.3          1 RTL135   0.0000
    20 C19         52.4010    55.1930    59.2360 C.3          1 RTL135   0.0000
    21 C20         54.0550    59.5350    58.6470 C.3          1 RTL135   0.0000
    22 H1          47.9945    50.8518    56.4562 H            1 RTL135   0.0000
    23 H2          46.4896    51.2232    56.9700 H            1 RTL135   0.0000
    24 H3          47.8883    49.0998    57.7184 H            1 RTL135   0.0000
    25 H4          46.5159    49.6282    58.4283 H            1 RTL135   0.0000
    26 H5          48.5660    49.2144    59.8347 H            1 RTL135   0.0000
    27 H6          47.5923    50.4788    60.1809 H            1 RTL135   0.0000
    28 H7          51.1363    52.7922    57.9542 H            1 RTL135   0.0000
    29 H8          49.2372    54.6034    59.1682 H            1 RTL135   0.0000
    30 H9          49.9292    56.6341    57.3172 H            1 RTL135   0.0000
    31 H10         52.7228    57.2694    57.2360 H            1 RTL135   0.0000
    32 H11         50.8676    59.1252    58.3842 H            1 RTL135   0.0000
    33 H12         51.7504    61.0833    56.6254 H            1 RTL135   0.0000
    34 H13         54.5698    61.6253    57.1920 H            1 RTL135   0.0000
    35 H14         53.4791    62.7729    57.5919 H            1 RTL135   0.0000
    36 H15         54.3801    63.1822    55.5413 H            1 RTL135   0.0000
    37 H16         48.3439    54.3472    57.5101 H            1 RTL135   0.0000
    38 H17         48.5538    53.3814    56.2101 H            1 RTL135   0.0000
    39 H18         47.0463    53.7604    56.7108 H            1 RTL135   0.0000
    40 H19         47.3321    53.8032    59.2500 H            1 RTL135   0.0000
    41 H20         46.1251    53.2035    58.3279 H            1 RTL135   0.0000
    42 H21         46.7193    52.3234    59.5684 H            1 RTL135   0.0000
    43 H22         51.2684    51.2054    60.0389 H            1 RTL135   0.0000
    44 H23         50.2879    50.4919    61.1327 H            1 RTL135   0.0000
    45 H24         50.8208    49.6475    59.8405 H            1 RTL135   0.0000
    46 H25         53.0263    55.9528    59.0579 H            1 RTL135   0.0000
    47 H26         52.2354    55.1212    60.2196 H            1 RTL135   0.0000
    48 H27         52.8072    54.3419    58.9033 H            1 RTL135   0.0000
    49 H28         54.7279    60.2624    58.5126 H            1 RTL135   0.0000
    50 H29         53.8289    59.4654    59.6186 H            1 RTL135   0.0000
    51 H30         54.4356    58.6662    58.3303 H            1 RTL135   0.0000
@<TRIPOS>BOND
     1    1    2       1
     2    1    6       1
     3    1   17       1
     4    1   18       1
     5    2    3       1
     6    3    4       1
     7    4    5       1
     8    5    6       2
     9    5   19       1
    10    6    7       1
    11    7    8       2
    12    8    9       1
    13    9   10       2
    14    9   20       1
    15   10   11       1
    16   11   12       2
    17   12   13       1
    18   13   14       2
    19   13   21       1
    20   14   15       1
    21   15   16       1
    22    2   22       1
    23    2   23       1
    24    3   24       1
    25    3   25       1
    26    4   26       1
    27    4   27       1
    28    7   28       1
    29    8   29       1
    30   10   30       1
    31   11   31       1
    32   12   32       1
    33   14   33       1
    34   15   34       1
    35   15   35       1
    36   16   36       1
    37   17   37       1
    38   17   38       1
    39   17   39       1
    40   18   40       1
    41   18   41       1
    42   18   42       1
    43   19   43       1
    44   19   44       1
    45   19   45       1
    46   20   46       1
    47   20   47       1
    48   20   48       1
    49   21   49       1
    50   21   50       1
    51   21   51       1
@<TRIPOS>SUBSTRUCTURE
     1 RTL135      1 GROUP             4 A     RTL     0 **** RTL A 135
