@<TRIPOS>MOLECULE
2z9d_FMN_1_ligand
   50    52     1     0     0
SMALL
NO_CHARGES


@<TRIPOS>ATOM
     1 N1           8.3630    81.9870    28.7510 N.2          1 FMN401   0.0000
     2 C2           9.1280    81.4540    29.7680 C.2          1 FMN401   0.0000
     3 O2          10.2730    81.8570    29.9500 O.2          1 FMN401   0.0000
     4 N3           8.5970    80.4890    30.6040 N.pl3        1 FMN401   0.0000
     5 C4           7.2890    80.0620    30.4570 C.2          1 FMN401   0.0000
     6 O4           6.9470    79.0350    31.0480 O.2          1 FMN401   0.0000
     7 C4A          6.5160    80.5730    29.4160 C.2          1 FMN401   0.0000
     8 N5           5.1940    80.1820    29.2370 N.2          1 FMN401   0.0000
     9 C5A          4.4570    80.7130    28.1620 C.ar         1 FMN401   0.0000
    10 C6           3.1630    80.2670    27.9140 C.ar         1 FMN401   0.0000
    11 C7           2.3920    80.7480    26.8490 C.ar         1 FMN401   0.0000
    12 C7M          1.0740    80.1190    26.5150 C.3          1 FMN401   0.0000
    13 C8           2.9490    81.6890    25.9980 C.ar         1 FMN401   0.0000
    14 C8M          2.3050    81.9660    24.6820 C.3          1 FMN401   0.0000
    15 C9           4.2420    82.1240    26.2310 C.ar         1 FMN401   0.0000
    16 C9A          5.0100    81.6590    27.3040 C.ar         1 FMN401   0.0000
    17 N10          6.3280    82.1050    27.5330 N.pl3        1 FMN401   0.0000
    18 C10          7.0740    81.5430    28.5600 C.2          1 FMN401   0.0000
    19 C1'          7.0380    83.0420    26.6110 C.3          1 FMN401   0.0000
    20 C2'          7.4910    82.2930    25.3770 C.3          1 FMN401   0.0000
    21 O2'          8.3940    81.2770    25.7840 O.3          1 FMN401   0.0000
    22 C3'          8.1090    83.2610    24.3430 C.3          1 FMN401   0.0000
    23 O3'          7.0830    84.1410    23.8700 O.3          1 FMN401   0.0000
    24 C4'          8.7880    82.4950    23.2110 C.3          1 FMN401   0.0000
    25 O4'          9.3190    83.3410    22.2050 O.3          1 FMN401   0.0000
    26 C5'          7.7790    81.5650    22.5620 C.3          1 FMN401   0.0000
    27 O5'          8.2970    81.0310    21.3710 O.3          1 FMN401   0.0000
    28 P            7.4760    81.3250    20.0220 P.3          1 FMN401   0.0000
    29 O1P          8.2510    80.6750    18.8660 O.co2        1 FMN401   0.0000
    30 O2P          6.0690    80.7450    20.0610 O.co2        1 FMN401  -1.0000
    31 O3P          7.4650    82.8070    19.7540 O.co2        1 FMN401  -1.0000
    32 H1           9.1663    80.0941    31.3251 H            1 FMN401   0.0000
    33 H2           2.7682    79.5762    28.5198 H            1 FMN401   0.0000
    34 H7M1         0.6688    80.5902    25.7316 H            1 FMN401   0.0000
    35 H7M2         1.2126    79.1548    26.2889 H            1 FMN401   0.0000
    36 H7M3         0.4609    80.1921    27.3016 H            1 FMN401   0.0000
    37 H8M1         2.8288    82.6649    24.1951 H            1 FMN401   0.0000
    38 H8M2         2.2830    81.1269    24.1385 H            1 FMN401   0.0000
    39 H8M3         1.3712    82.2919    24.8299 H            1 FMN401   0.0000
    40 H9           4.6427    82.7964    25.6086 H            1 FMN401   0.0000
    41 H1'1         7.8341    83.4281    27.0770 H            1 FMN401   0.0000
    42 H1'2         6.4180    83.7797    26.3438 H            1 FMN401   0.0000
    43 H2'          6.6923    81.8570    24.9623 H            1 FMN401   0.0000
    44 H13          7.8859    80.4382    25.9795 H            1 FMN401   0.0000
    45 H3'          8.8028    83.8117    24.8070 H            1 FMN401   0.0000
    46 H15          6.2008    83.6710    23.9000 H            1 FMN401   0.0000
    47 H4'          9.5308    81.9462    23.5945 H            1 FMN401   0.0000
    48 H17          8.8870    83.1285    21.3285 H            1 FMN401   0.0000
    49 H5'1         6.9442    82.0762    22.3577 H            1 FMN401   0.0000
    50 H5'2         7.5667    80.8183    23.1924 H            1 FMN401   0.0000
@<TRIPOS>BOND
     1    1    2       1
     2    1   18       2
     3    2    3       2
     4    2    4       1
     5    4    5       1
     6    5    6       2
     7    5    7       1
     8    7    8       2
     9    7   18       1
    10    8    9       1
    11    9   10      ar
    12    9   16      ar
    13   10   11      ar
    14   11   12       1
    15   11   13      ar
    16   13   14       1
    17   13   15      ar
    18   15   16      ar
    19   16   17       1
    20   17   18       1
    21   17   19       1
    22   19   20       1
    23   20   21       1
    24   20   22       1
    25   22   23       1
    26   22   24       1
    27   24   25       1
    28   24   26       1
    29   26   27       1
    30   27   28       1
    31   28   29      ar
    32   28   30      ar
    33   28   31      ar
    34    4   32       1
    35   10   33       1
    36   12   34       1
    37   12   35       1
    38   12   36       1
    39   14   37       1
    40   14   38       1
    41   14   39       1
    42   15   40       1
    43   19   41       1
    44   19   42       1
    45   20   43       1
    46   21   44       1
    47   22   45       1
    48   23   46       1
    49   24   47       1
    50   25   48       1
    51   26   49       1
    52   26   50       1
@<TRIPOS>SUBSTRUCTURE
     1 FMN401      1 GROUP             4 A     FMN     0 **** FMN A 401
