@<TRIPOS>MOLECULE
2d3a_ADP_6_ligand
   39    41     1     0     0
SMALL
NO_CHARGES


@<TRIPOS>ATOM
     1 PB          63.5920    29.5570    -1.5300 P.3          1 ADP6009   0.0000
     2 O1B         62.5810    29.9080    -2.5920 O.co2        1 ADP6009   0.0000
     3 O2B         64.5750    30.5480    -1.0240 O.co2        1 ADP6009  -1.0000
     4 O3B         62.9780    28.8020    -0.3560 O.co2        1 ADP6009  -1.0000
     5 PA          65.4630    27.3550    -1.6920 P.3          1 ADP6009   0.0000
     6 O1A         66.7120    27.6840    -0.9800 O.co2        1 ADP6009   0.0000
     7 O2A         64.4380    26.4450    -1.0850 O.co2        1 ADP6009  -1.0000
     8 O3A         64.5640    28.5510    -2.3160 O.3          1 ADP6009   0.0000
     9 O5'         65.9090    26.6690    -3.1060 O.3          1 ADP6009   0.0000
    10 C5'         66.8780    27.2410    -4.0310 C.3          1 ADP6009   0.0000
    11 C4'         67.4750    26.1370    -4.9010 C.3          1 ADP6009   0.0000
    12 O4'         68.1050    26.7000    -6.0330 O.3          1 ADP6009   0.0000
    13 C3'         68.5900    25.3780    -4.1770 C.3          1 ADP6009   0.0000
    14 O3'         68.7140    23.9720    -4.5640 O.3          1 ADP6009   0.0000
    15 C2'         69.8310    26.1210    -4.5650 C.3          1 ADP6009   0.0000
    16 O2'         70.9870    25.3160    -4.3640 O.3          1 ADP6009   0.0000
    17 C1'         69.4850    26.2460    -6.0160 C.3          1 ADP6009   0.0000
    18 N9          70.3820    27.1790    -6.7620 N.pl3        1 ADP6009   0.0000
    19 C8          71.3920    27.9420    -6.3000 C.2          1 ADP6009   0.0000
    20 N7          71.9040    28.6090    -7.3560 N.2          1 ADP6009   0.0000
    21 C5          71.2120    28.2670    -8.4800 C.ar         1 ADP6009   0.0000
    22 C6          71.2610    28.6160    -9.8420 C.ar         1 ADP6009   0.0000
    23 N6          72.1680    29.5170   -10.2990 N.pl3        1 ADP6009   0.0000
    24 N1          70.3640    28.0390   -10.7270 N.ar         1 ADP6009   0.0000
    25 C2          69.4180    27.1380   -10.3280 C.ar         1 ADP6009   0.0000
    26 N3          69.3610    26.8010    -9.0250 N.ar         1 ADP6009   0.0000
    27 C4          70.2440    27.3490    -8.0950 C.ar         1 ADP6009   0.0000
    28 H5'1        67.6080    27.6873    -3.5134 H            1 ADP6009   0.0000
    29 H5'2        66.4233    27.9142    -4.6142 H            1 ADP6009   0.0000
    30 H4'         66.7583    25.5015    -5.1882 H            1 ADP6009   0.0000
    31 H3'         68.4542    25.4437    -3.1884 H            1 ADP6009   0.0000
    32 H5          69.0608    23.4425    -3.7898 H            1 ADP6009   0.0000
    33 H2'         69.9012    27.0095    -4.1116 H            1 ADP6009   0.0000
    34 H7          70.7135    24.4237    -4.0048 H            1 ADP6009   0.0000
    35 H1'         69.5338    25.3415    -6.4398 H            1 ADP6009   0.0000
    36 H9          71.7040    28.0028    -5.3519 H            1 ADP6009   0.0000
    37 H10         72.1907    29.7551   -11.2700 H            1 ADP6009   0.0000
    38 H11         72.8133    29.9426    -9.6646 H            1 ADP6009   0.0000
    39 H12         68.7823    26.7377   -10.9881 H            1 ADP6009   0.0000
@<TRIPOS>BOND
     1    1    2      ar
     2    1    3      ar
     3    1    4      ar
     4    1    8       1
     5    5    6      ar
     6    5    7      ar
     7    5    8       1
     8    5    9       1
     9    9   10       1
    10   10   11       1
    11   11   12       1
    12   11   13       1
    13   12   17       1
    14   13   14       1
    15   13   15       1
    16   15   16       1
    17   15   17       1
    18   17   18       1
    19   18   19       1
    20   18   27       1
    21   19   20       2
    22   20   21       1
    23   21   22      ar
    24   21   27      ar
    25   22   23       1
    26   22   24      ar
    27   24   25      ar
    28   25   26      ar
    29   26   27      ar
    30   25   39       1
    31   23   38       1
    32   23   37       1
    33   10   28       1
    34   10   29       1
    35   11   30       1
    36   13   31       1
    37   14   32       1
    38   15   33       1
    39   16   34       1
    40   17   35       1
    41   19   36       1
@<TRIPOS>SUBSTRUCTURE
     1 ADP6009     1 GROUP             4 J     ADP     0 **** ADP J6009
