@<TRIPOS>MOLECULE
4is3_NAD_1_ligand
   70    74     1     0     0
SMALL
NO_CHARGES


@<TRIPOS>ATOM
     1 PA          -2.3330    39.0640    30.8420 P.3          1 NAD300   0.0000
     2 O1A         -3.2990    38.3300    31.6740 O.co2        1 NAD300   0.0000
     3 O2A         -1.5790    40.1790    31.5150 O.co2        1 NAD300  -1.0000
     4 O5B         -3.0750    39.5830    29.5610 O.3          1 NAD300   0.0000
     5 C5B         -3.5640    38.5930    28.6400 C.3          1 NAD300   0.0000
     6 C4B         -4.3060    39.2670    27.5170 C.3          1 NAD300   0.0000
     7 O4B         -4.9190    38.2350    26.7140 O.3          1 NAD300   0.0000
     8 C3B         -5.4310    40.2210    27.9360 C.3          1 NAD300   0.0000
     9 O3B         -5.5690    41.3820    27.1240 O.3          1 NAD300   0.0000
    10 C2B         -6.6740    39.3400    27.8520 C.3          1 NAD300   0.0000
    11 O2B         -7.8770    40.0400    27.5730 O.3          1 NAD300   0.0000
    12 C1B         -6.3240    38.4140    26.6870 C.3          1 NAD300   0.0000
    13 N9A         -6.9780    37.1130    26.7840 N.pl3        1 NAD300   0.0000
    14 C8A         -6.8460    36.1820    27.7840 C.2          1 NAD300   0.0000
    15 N7A         -7.7570    35.2390    27.7590 N.2          1 NAD300   0.0000
    16 C5A         -8.5360    35.5650    26.6590 C.ar         1 NAD300   0.0000
    17 C6A         -9.6820    34.9690    26.0970 C.ar         1 NAD300   0.0000
    18 N6A        -10.3230    33.9330    26.6440 N.pl3        1 NAD300   0.0000
    19 N1A        -10.1880    35.5230    24.9690 N.ar         1 NAD300   0.0000
    20 C2A         -9.5970    36.6100    24.4590 C.ar         1 NAD300   0.0000
    21 N3A         -8.5310    37.2770    24.9170 N.ar         1 NAD300   0.0000
    22 C4A         -8.0480    36.7010    26.0310 C.ar         1 NAD300   0.0000
    23 O3          -1.2240    38.0380    30.3000 O.3          1 NAD300   0.0000
    24 PN           0.3130    38.1290    29.8540 P.3          1 NAD300   0.0000
    25 O1N          1.1510    37.6970    30.9990 O.co2        1 NAD300   0.0000
    26 O2N          0.5720    39.4510    29.2360 O.co2        1 NAD300  -1.0000
    27 O5D          0.3110    37.0170    28.7130 O.3          1 NAD300   0.0000
    28 C5D          0.5110    37.2920    27.3120 C.3          1 NAD300   0.0000
    29 C4D          0.9880    36.0170    26.6600 C.3          1 NAD300   0.0000
    30 O4D          2.2470    35.5970    27.2350 O.3          1 NAD300   0.0000
    31 C3D          0.0660    34.8070    26.8040 C.3          1 NAD300   0.0000
    32 O3D          0.0570    34.0680    25.5840 O.3          1 NAD300   0.0000
    33 C2D          0.7370    34.0220    27.9340 C.3          1 NAD300   0.0000
    34 O2D          0.4300    32.6370    27.8730 O.3          1 NAD300   0.0000
    35 C1D          2.2320    34.2410    27.5430 C.3          1 NAD300   0.0000
    36 N1N          3.2140    33.9260    28.6670 N.ar         1 NAD300   1.0000
    37 C2N          3.1760    34.7410    29.8510 C.ar         1 NAD300   0.0000
    38 C3N          3.9480    34.4020    30.9500 C.ar         1 NAD300   0.0000
    39 C7N          3.9550    35.2560    32.1980 C.2          1 NAD300   0.0000
    40 O7N          4.7610    35.0140    33.0880 O.2          1 NAD300   0.0000
    41 N7N          3.0500    36.2510    32.2950 N.am         1 NAD300   0.0000
    42 C4N          4.7830    33.2870    30.8590 C.ar         1 NAD300   0.0000
    43 C5N          4.9870    32.6710    29.6290 C.ar         1 NAD300   0.0000
    44 C6N          4.0950    32.9110    28.5850 C.ar         1 NAD300   0.0000
    45 H5B1        -4.1816    37.9694    29.1193 H            1 NAD300   0.0000
    46 H5B2        -2.7931    38.0770    28.2665 H            1 NAD300   0.0000
    47 H4B         -3.6507    39.7688    26.9524 H            1 NAD300   0.0000
    48 H3B         -5.2891    40.4993    28.8859 H            1 NAD300   0.0000
    49 H5          -6.3219    41.9425    27.4690 H            1 NAD300   0.0000
    50 H2B         -6.7744    38.8087    28.6932 H            1 NAD300   0.0000
    51 H7          -8.5252    39.9004    28.3216 H            1 NAD300   0.0000
    52 H1B         -6.5850    38.8519    25.8267 H            1 NAD300   0.0000
    53 H8A         -6.1198    36.2195    28.4705 H            1 NAD300   0.0000
    54 H6A1       -11.1326    33.5531    26.1965 H            1 NAD300   0.0000
    55 H6A2        -9.9934    33.5371    27.5011 H            1 NAD300   0.0000
    56 H2A        -10.0075    36.9730    23.6225 H            1 NAD300   0.0000
    57 H5D1         1.1981    38.0099    27.2001 H            1 NAD300   0.0000
    58 H5D2        -0.3494    37.5864    26.8961 H            1 NAD300   0.0000
    59 H4D          1.1285    36.1934    25.6858 H            1 NAD300   0.0000
    60 H3D         -0.8586    35.0880    27.0611 H            1 NAD300   0.0000
    61 H17         -0.2733    34.6523    24.8428 H            1 NAD300   0.0000
    62 H2D          0.5270    34.4099    28.8315 H            1 NAD300   0.0000
    63 H19         -0.3963    32.4550    28.4060 H            1 NAD300   0.0000
    64 H1D          2.4564    33.7025    26.7308 H            1 NAD300   0.0000
    65 H2N          2.5923    35.5524    29.8810 H            1 NAD300   0.0000
    66 H7N1         3.0310    36.8320    33.1087 H            1 NAD300   0.0000
    67 H7N2         2.3979    36.4079    31.5533 H            1 NAD300   0.0000
    68 H4N          5.2341    32.9315    31.6776 H            1 NAD300   0.0000
    69 H5N          5.7676    32.0606    29.4945 H            1 NAD300   0.0000
    70 H6N          4.1094    32.3277    27.7729 H            1 NAD300   0.0000
@<TRIPOS>BOND
     1    1    2      ar
     2    1    3      ar
     3    1    4       1
     4    1   23       1
     5    4    5       1
     6    5    6       1
     7    6    7       1
     8    6    8       1
     9    7   12       1
    10    8    9       1
    11    8   10       1
    12   10   11       1
    13   10   12       1
    14   12   13       1
    15   13   14       1
    16   13   22       1
    17   14   15       2
    18   15   16       1
    19   16   17      ar
    20   16   22      ar
    21   17   18       1
    22   17   19      ar
    23   19   20      ar
    24   20   21      ar
    25   21   22      ar
    26   23   24       1
    27   24   25      ar
    28   24   26      ar
    29   24   27       1
    30   27   28       1
    31   28   29       1
    32   29   30       1
    33   29   31       1
    34   30   35       1
    35   31   32       1
    36   31   33       1
    37   33   34       1
    38   33   35       1
    39   35   36       1
    40   36   37      ar
    41   36   44      ar
    42   37   38      ar
    43   38   39       1
    44   38   42      ar
    45   39   40       2
    46   39   41      am
    47   42   43      ar
    48   43   44      ar
    49   44   70       1
    50    5   45       1
    51    5   46       1
    52    6   47       1
    53    8   48       1
    54    9   49       1
    55   10   50       1
    56   11   51       1
    57   12   52       1
    58   14   53       1
    59   18   54       1
    60   18   55       1
    61   20   56       1
    62   43   69       1
    63   28   57       1
    64   28   58       1
    65   29   59       1
    66   31   60       1
    67   32   61       1
    68   33   62       1
    69   34   63       1
    70   35   64       1
    71   37   65       1
    72   41   66       1
    73   41   67       1
    74   42   68       1
@<TRIPOS>SUBSTRUCTURE
     1 NAD300      1 GROUP             4 B     NAD     0 **** NAD B 300
