@<TRIPOS>MOLECULE
3w8r_ACP_3_ligand
   15    14     1     0     0
SMALL
NO_CHARGES


@<TRIPOS>ATOM
     1 PG          32.5020   -15.0280     0.3240 P.3          1 ACP302   0.0000
     2 O1G         33.0640   -15.2440    -1.0930 O.co2        1 ACP302   0.0000
     3 O2G         31.2300   -14.7170    -0.5490 O.co2        1 ACP302  -1.0000
     4 O3G         31.5430   -16.2800     0.7230 O.co2        1 ACP302  -1.0000
     5 PB          34.9540   -15.1880     1.3060 P.3          1 ACP302   0.0000
     6 O1B         34.4620   -16.6500     1.4390 O.co2        1 ACP302   0.0000
     7 O2B         35.5690   -14.6910     2.6060 O.co2        1 ACP302  -1.0000
     8 C3B         33.3930   -14.2270     1.2240 C.3          1 ACP302   0.0000
     9 PA          36.8760   -15.6950    -1.0420 P.3          1 ACP302   0.0000
    10 O1A         35.8750   -16.1200    -2.1090 O.co2        1 ACP302   0.0000
    11 O2A         37.7360   -16.7200    -0.3470 O.co2        1 ACP302  -1.0000
    12 O3A         35.9710   -14.8400     0.0510 O.3          1 ACP302   0.0000
    13 O5'         37.9290   -14.6270    -1.6400 O.co2        1 ACP302  -1.0000
    14 H3B1        32.9864   -14.1360     2.1331 H            1 ACP302   0.0000
    15 H3B2        33.5577   -13.3185     0.8400 H            1 ACP302   0.0000
@<TRIPOS>BOND
     1    1    2      ar
     2    1    3      ar
     3    1    4      ar
     4    1    8       1
     5    5    6      ar
     6    5    7      ar
     7    5    8       1
     8    5   12       1
     9    9   10      ar
    10    9   11      ar
    11    9   12       1
    12    9   13      ar
    13    8   15       1
    14    8   14       1
@<TRIPOS>SUBSTRUCTURE
     1 ACP302      1 GROUP             4 A     ACP     0 **** ACP A 302
