@<TRIPOS>MOLECULE
./coach420/2c96/ligand.pdb
 31 33 0 0 0
SMALL
GASTEIGER

@<TRIPOS>ATOM
      1  PG        21.6990   21.9480    1.9590 P.3   962  ATP962      0.5373
      2  O1G       22.1870   20.5710    2.3580 O.3   962  ATP962     -0.1143
      3  O2G       21.1470   21.7800    0.4870 O.2   962  ATP962     -0.2221
      4  O3G       20.6740   22.4800    2.8950 O.3   962  ATP962     -0.1143
      5  PB        24.3850   22.8720    1.5810 P.3   962  ATP962      0.2277
      6  O1B       24.7360   21.8000    0.5860 O.2   962  ATP962     -0.5168
      7  O2B       25.0660   22.7030    2.9350 O.3   962  ATP962     -0.4368
      8  O3B       22.8900   23.0840    1.8040 O.3   962  ATP962     -0.2258
      9  PA        25.0580   24.6760   -0.5620 P.3   962  ATP962      0.2189
     10  O1A       26.3590   24.1640   -1.0510 O.3   962  ATP962     -0.4371
     11  O2A       23.9010   24.1530   -1.2270 O.2   962  ATP962     -0.5170
     12  O3A       24.9690   24.2810    1.0350 O.3   962  ATP962     -0.2700
     13  O5'       25.1330   26.2550   -0.2720 O.3   962  ATP962     -0.3112
     14  C5'       23.8880   26.8860    0.0440 C.3   962  ATP962      0.1813
     15  C4'       23.8170   28.3090   -0.4590 C.3   962  ATP962      0.1801
     16  O4'       24.7620   29.1320    0.1060 O.3   962  ATP962     -0.3306
     17  C3'       24.1730   28.3910   -1.9120 C.3   962  ATP962      0.2161
     18  O3'       23.5730   29.5990   -2.3940 O.3   962  ATP962     -0.2175
     19  C2'       25.6350   28.7330   -1.9310 C.3   962  ATP962      0.2337
     20  O2'       26.0000   29.3940   -3.1570 O.3   962  ATP962     -0.2155
     21  C1'       25.8050   29.5530   -0.6870 C.3   962  ATP962      0.2409
     22  N9        27.0970   29.3560   -0.0630 N.ar  962  ATP962     -0.2693
     23  C8        27.5120   28.2910    0.7290 C.ar  962  ATP962      0.1816
     24  N7        28.7800   28.4820    1.0810 N.ar  962  ATP962     -0.2193
     25  C5        29.2010   29.6700    0.5680 C.ar  962  ATP962      0.1518
     26  C6        30.4160   30.2900    0.5900 C.ar  962  ATP962      0.1919
     27  N6        31.4730   29.8910    1.3050 N.pl3 962  ATP962     -0.1054
     28  N1        30.5130   31.4620   -0.1860 N.ar  962  ATP962     -0.2040
     29  C2        29.4260   31.9840   -0.8380 C.ar  962  ATP962      0.2016
     30  N3        28.2420   31.3120   -0.9130 N.ar  962  ATP962     -0.2048
     31  C4        28.1750   30.1640   -0.2330 C.ar  962  ATP962      0.1692
@<TRIPOS>BOND
     1     1     3    2
     2     1     8    1
     3     1     2    1
     4     1     4    1
     5     5     6    2
     6     5    12    1
     7     5     8    1
     8     5     7    1
     9     9    11    2
    10     9    10    1
    11     9    13    1
    12     9    12    1
    13    13    14    1
    14    14    15    1
    15    15    17    1
    16    15    16    1
    17    16    21    1
    18    17    18    1
    19    17    19    1
    20    19    20    1
    21    19    21    1
    22    21    22    1
    23    22    31   ar
    24    22    23   ar
    25    23    24   ar
    26    24    25   ar
    27    25    31   ar
    28    25    26   ar
    29    26    28   ar
    30    26    27    1
    31    28    29   ar
    32    29    30   ar
    33    30    31   ar
