@<TRIPOS>MOLECULE
5cho_FAD_7_ligand
   84    89     1     0     0
SMALL
NO_CHARGES


@<TRIPOS>ATOM
     1 PA         236.6290   -17.4880    45.2770 P.3          1 FAD201   0.0000
     2 O1A        236.7910   -16.8890    43.9120 O.co2        1 FAD201   0.0000
     3 O2A        236.0400   -16.4630    46.1820 O.co2        1 FAD201  -1.0000
     4 O5B        235.6350   -18.7710    45.1980 O.3          1 FAD201   0.0000
     5 C5B        235.0530   -19.2770    46.4070 C.3          1 FAD201   0.0000
     6 C4B        233.8280   -20.2200    46.0940 C.3          1 FAD201   0.0000
     7 O4B        232.8130   -19.5200    45.7180 O.3          1 FAD201   0.0000
     8 C3B        234.1310   -21.1630    44.9360 C.3          1 FAD201   0.0000
     9 O3B        233.5090   -22.3890    45.1350 O.3          1 FAD201   0.0000
    10 C2B        233.5420   -20.4670    43.7120 C.3          1 FAD201   0.0000
    11 O2B        233.0670   -21.5110    42.7010 O.3          1 FAD201   0.0000
    12 C1B        232.5320   -19.8080    44.1630 C.3          1 FAD201   0.0000
    13 N9A        232.3980   -18.5470    43.5240 N.pl3        1 FAD201   0.0000
    14 C8A        233.0690   -17.4150    43.8560 C.2          1 FAD201   0.0000
    15 N7A        232.6610   -16.4230    43.0280 N.2          1 FAD201   0.0000
    16 C5A        231.7330   -16.9390    42.1870 C.ar         1 FAD201   0.0000
    17 C6A        231.0070   -16.3630    41.1590 C.ar         1 FAD201   0.0000
    18 N6A        230.9640   -15.0160    40.6070 N.pl3        1 FAD201   0.0000
    19 N1A        230.1260   -17.1070    40.4540 N.ar         1 FAD201   0.0000
    20 C2A        229.9520   -18.4330    40.7580 C.ar         1 FAD201   0.0000
    21 N3A        230.6700   -19.0050    41.7770 N.ar         1 FAD201   0.0000
    22 C4A        231.5630   -18.2540    42.4940 C.ar         1 FAD201   0.0000
    23 N1         238.1200   -22.2270    51.6610 N.2          1 FAD201   0.0000
    24 C2         239.1070   -23.2060    51.2060 C.2          1 FAD201   0.0000
    25 O2         239.2110   -23.4670    50.0040 O.2          1 FAD201   0.0000
    26 N3         239.9650   -23.8760    52.1790 N.pl3        1 FAD201   0.0000
    27 C4         239.8340   -23.5660    53.5660 C.2          1 FAD201   0.0000
    28 O4         240.5060   -24.0870    54.3350 O.2          1 FAD201   0.0000
    29 C4X        238.8200   -22.5610    54.0130 C.2          1 FAD201   0.0000
    30 N5         238.6710   -22.2430    55.3930 N.2          1 FAD201   0.0000
    31 C5X        237.6630   -21.2420    55.8250 C.ar         1 FAD201   0.0000
    32 C6         237.5300   -20.9330    57.2040 C.ar         1 FAD201   0.0000
    33 C7         236.5810   -19.9950    57.6230 C.ar         1 FAD201   0.0000
    34 C7M        236.7440   -19.9360    59.1720 C.3          1 FAD201   0.0000
    35 C8         235.7670   -19.3580    56.6780 C.ar         1 FAD201   0.0000
    36 C8M        234.7560   -18.3330    57.3010 C.3          1 FAD201   0.0000
    37 C9         235.8980   -19.6640    55.3130 C.ar         1 FAD201   0.0000
    38 C9A        236.8500   -20.6120    54.8850 C.ar         1 FAD201   0.0000
    39 N10        236.9970   -20.9390    53.4680 N.pl3        1 FAD201   0.0000
    40 C10        237.9870   -21.9130    53.0490 C.2          1 FAD201   0.0000
    41 C1'        236.1530   -20.2910    52.4230 C.3          1 FAD201   0.0000
    42 C2'        236.9840   -19.2310    51.6750 C.3          1 FAD201   0.0000
    43 O2'        237.4310   -18.2800    52.5940 O.3          1 FAD201   0.0000
    44 C3'        236.0840   -18.5890    50.6430 C.3          1 FAD201   0.0000
    45 O3'        235.6960   -19.5590    49.7180 O.3          1 FAD201   0.0000
    46 C4'        236.7860   -17.4480    49.8980 C.3          1 FAD201   0.0000
    47 O4'        235.8350   -16.7040    49.2500 O.3          1 FAD201   0.0000
    48 C5'        237.7830   -18.0120    48.8630 C.3          1 FAD201   0.0000
    49 O5'        238.4030   -16.9270    48.1910 O.3          1 FAD201   0.0000
    50 P          239.0360   -17.1570    46.7240 P.3          1 FAD201   0.0000
    51 O1P        239.3050   -15.8320    46.0790 O.co2        1 FAD201   0.0000
    52 O2P        240.3610   -17.9190    46.8630 O.co2        1 FAD201  -1.0000
    53 O3P        238.0350   -17.9910    45.8400 O.3          1 FAD201   0.0000
    54 H5B1       234.7399   -18.5089    46.9655 H            1 FAD201   0.0000
    55 H5B2       235.7442   -19.7953    46.9106 H            1 FAD201   0.0000
    56 H4B        233.5912   -20.7493    46.9087 H            1 FAD201   0.0000
    57 H3B        235.1181   -21.2833    44.8303 H            1 FAD201   0.0000
    58 H5         234.1996   -23.1114    45.1697 H            1 FAD201   0.0000
    59 H2B        234.2116   -19.8506    43.2977 H            1 FAD201   0.0000
    60 H7         232.6822   -21.0498    41.9015 H            1 FAD201   0.0000
    61 H1B        231.6935   -20.3421    44.0553 H            1 FAD201   0.0000
    62 H8A        233.7473   -17.3280    44.5856 H            1 FAD201   0.0000
    63 H6A1       230.3520   -14.8076    39.8441 H            1 FAD201   0.0000
    64 H6A2       231.5465   -14.2995    40.9909 H            1 FAD201   0.0000
    65 H2A        229.3007   -18.9836    40.2359 H            1 FAD201   0.0000
    66 H13        240.6404   -24.5481    51.8754 H            1 FAD201   0.0000
    67 H14        238.1152   -21.3863    57.8763 H            1 FAD201   0.0000
    68 H7M1       236.0921   -19.2792    59.5510 H            1 FAD201   0.0000
    69 H7M2       236.5694   -20.8409    59.5602 H            1 FAD201   0.0000
    70 H7M3       237.6751   -19.6500    59.3985 H            1 FAD201   0.0000
    71 H8M1       234.2104   -17.9184    56.5727 H            1 FAD201   0.0000
    72 H8M2       234.1519   -18.8077    57.9410 H            1 FAD201   0.0000
    73 H8M3       235.2613   -17.6195    57.7864 H            1 FAD201   0.0000
    74 H21        235.3136   -19.2075    54.6421 H            1 FAD201   0.0000
    75 H1'1       235.3653   -19.8525    52.8556 H            1 FAD201   0.0000
    76 H1'2       235.8350   -20.9832    51.7751 H            1 FAD201   0.0000
    77 H2'        237.7648   -19.6644    51.2249 H            1 FAD201   0.0000
    78 H25        238.3181   -18.5613    52.9600 H            1 FAD201   0.0000
    79 H3'        235.2701   -18.2288    51.0988 H            1 FAD201   0.0000
    80 H27        236.4157   -20.2485    49.6363 H            1 FAD201   0.0000
    81 H4'        237.2739   -16.8708    50.5528 H            1 FAD201   0.0000
    82 H29        236.0161   -16.7151    48.2666 H            1 FAD201   0.0000
    83 H5'1       237.2954   -18.5827    48.2023 H            1 FAD201   0.0000
    84 H5'2       238.4774   -18.5605    49.3288 H            1 FAD201   0.0000
@<TRIPOS>BOND
     1    1    2      ar
     2    1    3      ar
     3    1    4       1
     4    1   53       1
     5    4    5       1
     6    5    6       1
     7    6    7       1
     8    6    8       1
     9    7   12       1
    10    8    9       1
    11    8   10       1
    12   10   11       1
    13   10   12       1
    14   12   13       1
    15   13   14       1
    16   13   22       1
    17   14   15       2
    18   15   16       1
    19   16   17      ar
    20   16   22      ar
    21   17   18       1
    22   17   19      ar
    23   19   20      ar
    24   20   21      ar
    25   21   22      ar
    26   23   24       1
    27   23   40       2
    28   24   25       2
    29   24   26       1
    30   26   27       1
    31   27   28       2
    32   27   29       1
    33   29   30       2
    34   29   40       1
    35   30   31       1
    36   31   32      ar
    37   31   38      ar
    38   32   33      ar
    39   33   34       1
    40   33   35      ar
    41   35   36       1
    42   35   37      ar
    43   37   38      ar
    44   38   39       1
    45   39   40       1
    46   39   41       1
    47   41   42       1
    48   42   43       1
    49   42   44       1
    50   44   45       1
    51   44   46       1
    52   46   47       1
    53   46   48       1
    54   48   49       1
    55   49   50       1
    56   50   51      ar
    57   50   52      ar
    58   50   53       1
    59   48   84       1
    60    5   54       1
    61    5   55       1
    62    6   56       1
    63    8   57       1
    64    9   58       1
    65   10   59       1
    66   11   60       1
    67   12   61       1
    68   14   62       1
    69   18   63       1
    70   18   64       1
    71   20   65       1
    72   26   66       1
    73   32   67       1
    74   34   68       1
    75   34   69       1
    76   34   70       1
    77   36   71       1
    78   36   72       1
    79   36   73       1
    80   37   74       1
    81   41   75       1
    82   41   76       1
    83   42   77       1
    84   43   78       1
    85   44   79       1
    86   45   80       1
    87   46   81       1
    88   47   82       1
    89   48   83       1
@<TRIPOS>SUBSTRUCTURE
     1 FAD201      1 GROUP             4 G     FAD     0 **** FAD G 201
