@<TRIPOS>MOLECULE
4m49_22Y_2_ligand
   42    44     1     0     0
SMALL
NO_CHARGES


@<TRIPOS>ATOM
     1 C1          -1.3880    -1.1580    15.5030 C.3          1 22Y803   0.0000
     2 C2          -1.2270     0.2840    15.9940 C.3          1 22Y803   0.0000
     3 C4          -1.6390     1.2380    14.9040 C.ar         1 22Y803   0.0000
     4 C5          -2.9310     1.7270    14.8630 C.ar         1 22Y803   0.0000
     5 C6          -3.3060     2.6050    13.8620 C.ar         1 22Y803   0.0000
     6 C7          -2.3890     2.9900    12.9030 C.ar         1 22Y803   0.0000
     7 C8          -1.0960     2.5000    12.9440 C.ar         1 22Y803   0.0000
     8 C9          -0.7210     1.6240    13.9450 C.ar         1 22Y803   0.0000
     9 N10          0.1770     0.5340    16.3300 N.pl3        1 22Y803   0.0000
    10 C11          0.5910     1.7110    16.9500 C.ar         1 22Y803   0.0000
    11 C12          1.9610     2.0360    16.9480 C.ar         1 22Y803   0.0000
    12 N13          2.3830     3.1480    17.5300 N.ar         1 22Y803   0.0000
    13 C14          1.5150     3.9550    18.1200 C.ar         1 22Y803   0.0000
    14 C15          0.1570     3.6460    18.1230 C.ar         1 22Y803   0.0000
    15 N16         -0.2810     2.5240    17.5360 N.ar         1 22Y803   0.0000
    16 C17         -0.7720     4.5820    18.8020 C.ar         1 22Y803   0.0000
    17 C18         -0.3680     5.1640    20.0000 C.ar         1 22Y803   0.0000
    18 C19         -1.2150     6.0450    20.6670 C.ar         1 22Y803   0.0000
    19 C20         -2.4680     6.3470    20.1310 C.ar         1 22Y803   0.0000
    20 C21         -2.8660     5.7710    18.9430 C.ar         1 22Y803   0.0000
    21 C22         -2.0320     4.8880    18.2770 C.ar         1 22Y803   0.0000
    22 CL1         -2.5630     4.1830    16.7820 Cl           1 22Y803   0.0000
    23 C24         -0.7760     6.6570    21.9320 C.2          1 22Y803   0.0000
    24 O25         -1.6690     7.2960    22.7130 O.co2        1 22Y803   0.0000
    25 O26          0.3890     6.5740    22.2680 O.co2        1 22Y803  -1.0000
    26 N27          2.8790     1.1930    16.3350 N.pl3        1 22Y803   0.0000
    27 H1          -1.1139    -1.7896    16.2282 H            1 22Y803   0.0000
    28 H2          -2.3442    -1.3230    15.2611 H            1 22Y803   0.0000
    29 H3          -0.8110    -1.3028    14.6992 H            1 22Y803   0.0000
    30 H4          -1.7975     0.4299    16.8022 H            1 22Y803   0.0000
    31 H5          -3.5944     1.4463    15.5566 H            1 22Y803   0.0000
    32 H6          -4.2401     2.9608    13.8325 H            1 22Y803   0.0000
    33 H7          -2.6603     3.6236    12.1784 H            1 22Y803   0.0000
    34 H8          -0.4329     2.7795    12.2496 H            1 22Y803   0.0000
    35 H9           0.2136     1.2696    13.9756 H            1 22Y803   0.0000
    36 H10          0.8596    -0.1620    16.1073 H            1 22Y803   0.0000
    37 H11          1.8361     4.7906    18.5657 H            1 22Y803   0.0000
    38 H12          0.5310     4.9493    20.3818 H            1 22Y803   0.0000
    39 H13         -3.0767     6.9808    20.6083 H            1 22Y803   0.0000
    40 H14         -3.7627     5.9922    18.5597 H            1 22Y803   0.0000
    41 H15          3.8512     1.4273    16.3357 H            1 22Y803   0.0000
    42 H16          2.5678     0.3517    15.8929 H            1 22Y803   0.0000
@<TRIPOS>BOND
     1    1    2       1
     2    2    3       1
     3    2    9       1
     4    3    4      ar
     5    3    8      ar
     6    4    5      ar
     7    5    6      ar
     8    6    7      ar
     9    7    8      ar
    10    9   10       1
    11   10   11      ar
    12   10   15      ar
    13   11   12      ar
    14   11   26       1
    15   12   13      ar
    16   13   14      ar
    17   14   15      ar
    18   14   16       1
    19   16   17      ar
    20   16   21      ar
    21   17   18      ar
    22   18   19      ar
    23   18   23       1
    24   19   20      ar
    25   20   21      ar
    26   21   22       1
    27   23   24      ar
    28   23   25      ar
    29    1   27       1
    30    1   28       1
    31    1   29       1
    32    2   30       1
    33    4   31       1
    34    5   32       1
    35    6   33       1
    36    7   34       1
    37    8   35       1
    38    9   36       1
    39   13   37       1
    40   17   38       1
    41   19   39       1
    42   20   40       1
    43   26   42       1
    44   26   41       1
@<TRIPOS>SUBSTRUCTURE
     1 22Y803      1 GROUP             4 C     22Y     0 **** 22Y C 803
