@<TRIPOS>MOLECULE
2vax_CSC_10_ligand
   41    42     1     0     0
SMALL
NO_CHARGES


@<TRIPOS>ATOM
     1 S1          82.3560     3.2570   -41.5970 S.3          1 CSC1385   0.0000
     2 C2          80.6640     3.7450   -41.4880 C.3          1 CSC1385   0.0000
     3 C3          80.1740     4.7020   -42.5610 C.2          1 CSC1385   0.0000
     4 C3'         78.9680     4.3870   -43.0540 C.2          1 CSC1385   0.0000
     5 C4          80.8870     5.7830   -42.9900 C.2          1 CSC1385   0.0000
     6 C4'         80.3080     6.9650   -43.3380 C.2          1 CSC1385   0.0000
     7 O4A         80.9790     7.9460   -43.6890 O.co2        1 CSC1385   0.0000
     8 O4B         79.0720     7.1060   -43.3640 O.co2        1 CSC1385  -1.0000
     9 N5          82.2100     5.6090   -42.8210 N.am         1 CSC1385   0.0000
    10 C6          82.9850     4.3590   -42.8060 C.3          1 CSC1385   0.0000
    11 C7          84.0900     5.2950   -42.3030 C.3          1 CSC1385   0.0000
    12 C8          83.1290     6.4120   -42.4910 C.2          1 CSC1385   0.0000
    13 O9          83.2360     7.6150   -42.3030 O.2          1 CSC1385   0.0000
    14 N10         85.4710     5.1430   -42.7580 N.am         1 CSC1385   0.0000
    15 C11         86.3290     4.9730   -41.8080 C.2          1 CSC1385   0.0000
    16 O12         87.5240     4.8150   -42.0150 O.2          1 CSC1385   0.0000
    17 C13         85.8120     4.9910   -40.3700 C.3          1 CSC1385   0.0000
    18 C14         86.6890     4.2240   -39.3770 C.3          1 CSC1385   0.0000
    19 C15         85.9870     4.0530   -38.0280 C.3          1 CSC1385   0.0000
    20 C16         86.8790     4.5430   -36.8800 C.3          1 CSC1385   0.0000
    21 N17         86.0400     5.0690   -35.8060 N.4          1 CSC1385   1.0000
    22 C18         87.8290     3.4680   -36.3640 C.2          1 CSC1385   0.0000
    23 O19         88.6610     2.9160   -37.1310 O.co2        1 CSC1385   0.0000
    24 O20         87.7930     3.1530   -35.1590 O.co2        1 CSC1385  -1.0000
    25 O1          78.3310     3.3120   -42.5940 O.2          1 CSC1385   0.0000
    26 H1          80.5299     4.1863   -40.6007 H            1 CSC1385   0.0000
    27 H2          80.1038     2.9181   -41.5372 H            1 CSC1385   0.0000
    28 H3'         78.5496     4.9554   -43.7624 H            1 CSC1385   0.0000
    29 H4          83.1507     3.9525   -43.7045 H            1 CSC1385   0.0000
    30 H5          84.1250     5.1469   -41.3146 H            1 CSC1385   0.0000
    31 H6          85.7295     5.1685   -43.7237 H            1 CSC1385   0.0000
    32 H7          84.8984     4.5845   -40.3603 H            1 CSC1385   0.0000
    33 H8          85.7565     5.9429   -40.0688 H            1 CSC1385   0.0000
    34 H9          87.5413     4.7284   -39.2386 H            1 CSC1385   0.0000
    35 H10         86.8937     3.3207   -39.7540 H            1 CSC1385   0.0000
    36 H11         85.7766     3.0853   -37.8889 H            1 CSC1385   0.0000
    37 H12         85.1381     4.5816   -38.0314 H            1 CSC1385   0.0000
    38 H13         87.4349     5.2977   -37.2283 H            1 CSC1385   0.0000
    39 H14         86.6196     5.3890   -35.0566 H            1 CSC1385   0.0000
    40 H15         85.4930     5.8308   -36.1530 H            1 CSC1385   0.0000
    41 H16         85.4331     4.3473   -35.4732 H            1 CSC1385   0.0000
@<TRIPOS>BOND
     1    1    2       1
     2    1   10       1
     3    2    3       1
     4    3    4       1
     5    3    5       2
     6    4   25       2
     7    5    6       1
     8    5    9       1
     9    6    7      ar
    10    6    8      ar
    11    9   10       1
    12    9   12      am
    13   10   11       1
    14   11   12       1
    15   11   14       1
    16   12   13       2
    17   14   15      am
    18   15   16       2
    19   15   17       1
    20   17   18       1
    21   18   19       1
    22   19   20       1
    23   20   21       1
    24   20   22       1
    25   22   23      ar
    26   22   24      ar
    27    2   26       1
    28    2   27       1
    29    4   28       1
    30   21   41       1
    31   10   29       1
    32   11   30       1
    33   14   31       1
    34   17   32       1
    35   17   33       1
    36   18   34       1
    37   18   35       1
    38   19   36       1
    39   19   37       1
    40   20   38       1
    41   21   39       1
    42   21   40       1
@<TRIPOS>SUBSTRUCTURE
     1 CSC1385     1 GROUP             4 J     CSC     0 **** CSC J1385
