@<TRIPOS>MOLECULE
2ptq_FUM_1_ligand
   10     9     1     0     0
SMALL
NO_CHARGES


@<TRIPOS>ATOM
     1 O1          76.7950   -12.9300    11.9410 O.co2        1 FUM1200   0.0000
     2 C2          76.4990   -13.0080    10.7620 C.2          1 FUM1200   0.0000
     3 O3          76.5620   -12.0130    10.0540 O.co2        1 FUM1200  -1.0000
     4 C4          76.0690   -14.3200    10.2090 C.2          1 FUM1200   0.0000
     5 C5          75.7550   -14.4860     8.9050 C.2          1 FUM1200   0.0000
     6 C6          75.3140   -15.8170     8.3900 C.2          1 FUM1200   0.0000
     7 O7          75.0640   -15.9470     7.2080 O.co2        1 FUM1200   0.0000
     8 O8          75.2060   -16.7850     9.1390 O.co2        1 FUM1200  -1.0000
     9 H1          76.0102   -15.1067    10.8235 H            1 FUM1200   0.0000
    10 H2          75.8186   -13.7094     8.2782 H            1 FUM1200   0.0000
@<TRIPOS>BOND
     1    1    2      ar
     2    2    3      ar
     3    2    4       1
     4    4    5       2
     5    5    6       1
     6    6    7      ar
     7    6    8      ar
     8    5   10       1
     9    4    9       1
@<TRIPOS>SUBSTRUCTURE
     1 FUM1200     1 GROUP             4 A     FUM     0 **** FUM A1200
