@<TRIPOS>MOLECULE
4jtq_NAP_3_ligand
   73    77     1     0     0
SMALL
NO_CHARGES


@<TRIPOS>ATOM
     1 PA         -67.8410   165.2780   209.1120 P.3          1 NAP402   0.0000
     2 O1A        -66.5940   165.7710   209.7020 O.co2        1 NAP402   0.0000
     3 O2A        -68.9070   164.6470   209.9340 O.co2        1 NAP402  -1.0000
     4 O5B        -67.4910   164.0530   208.1520 O.3          1 NAP402   0.0000
     5 C5B        -66.6200   164.0380   207.1940 C.3          1 NAP402   0.0000
     6 C4B        -66.5710   162.7120   206.3280 C.3          1 NAP402   0.0000
     7 O4B        -66.3900   161.6560   207.1150 O.3          1 NAP402   0.0000
     8 C3B        -67.8150   162.3910   205.5250 C.3          1 NAP402   0.0000
     9 O3B        -67.5400   162.7060   204.2860 O.3          1 NAP402   0.0000
    10 C2B        -68.0080   160.8790   205.6100 C.3          1 NAP402   0.0000
    11 O2B        -68.0110   160.1020   204.3740 O.3          1 NAP402   0.0000
    12 C1B        -66.7600   160.5030   206.4450 C.3          1 NAP402   0.0000
    13 N9A        -67.0660   159.5400   207.5200 N.pl3        1 NAP402   0.0000
    14 C8A        -68.1650   159.4730   208.2650 C.2          1 NAP402   0.0000
    15 N7A        -68.0510   158.4540   209.1510 N.2          1 NAP402   0.0000
    16 C5A        -66.8660   157.8590   208.9380 C.ar         1 NAP402   0.0000
    17 C6A        -66.1990   156.7910   209.5350 C.ar         1 NAP402   0.0000
    18 N6A        -66.7620   156.0860   210.5310 N.pl3        1 NAP402   0.0000
    19 N1A        -64.9830   156.4240   209.0880 N.ar         1 NAP402   0.0000
    20 C2A        -64.4270   157.1200   208.0410 C.ar         1 NAP402   0.0000
    21 N3A        -65.0560   158.1880   207.4450 N.ar         1 NAP402   0.0000
    22 C4A        -66.2550   158.5610   207.9330 C.ar         1 NAP402   0.0000
    23 O3         -68.5810   166.1480   207.9220 O.3          1 NAP402   0.0000
    24 PN         -69.2250   167.6110   207.9170 P.3          1 NAP402   0.0000
    25 O1N        -68.3190   168.5850   207.4710 O.co2        1 NAP402   0.0000
    26 O2N        -70.2650   167.1600   207.0060 O.co2        1 NAP402  -1.0000
    27 O5D        -69.8610   167.8850   209.3120 O.3          1 NAP402   0.0000
    28 C5D        -70.9420   167.1240   209.8270 C.3          1 NAP402   0.0000
    29 C4D        -72.2200   167.9130   209.8010 C.3          1 NAP402   0.0000
    30 O4D        -72.0690   169.0900   210.6110 O.3          1 NAP402   0.0000
    31 C3D        -72.7710   168.3780   208.3960 C.3          1 NAP402   0.0000
    32 O3D        -73.3400   167.3230   207.6570 O.3          1 NAP402   0.0000
    33 C2D        -73.7880   169.4650   208.8770 C.3          1 NAP402   0.0000
    34 O2D        -74.9230   168.7700   209.4280 O.3          1 NAP402   0.0000
    35 C1D        -72.9780   170.0590   210.0580 C.3          1 NAP402   0.0000
    36 N1N        -72.1710   171.2540   209.7020 N.ar         1 NAP402   1.0000
    37 C2N        -72.6400   172.5000   210.1210 C.ar         1 NAP402   0.0000
    38 C3N        -71.9140   173.6100   209.7850 C.ar         1 NAP402   0.0000
    39 C7N        -72.3110   174.9100   210.2050 C.2          1 NAP402   0.0000
    40 O7N        -71.8890   175.9860   209.7250 O.2          1 NAP402   0.0000
    41 N7N        -73.1620   174.9610   211.1840 N.am         1 NAP402   0.0000
    42 C4N        -70.7300   173.4430   209.0500 C.ar         1 NAP402   0.0000
    43 C5N        -70.2840   172.2510   208.5790 C.ar         1 NAP402   0.0000
    44 C6N        -70.9390   171.1250   208.9900 C.ar         1 NAP402   0.0000
    45 P2B        -69.2530   159.0830   204.0700 P.3          1 NAP402   0.0000
    46 O1X        -70.5400   159.8880   204.0110 O.co2        1 NAP402   0.0000
    47 O2X        -68.8220   158.4900   202.7760 O.co2        1 NAP402  -1.0000
    48 O3X        -69.2300   158.0300   205.1840 O.co2        1 NAP402  -1.0000
    49 H5B1       -65.7158   164.1736   207.5991 H            1 NAP402   0.0000
    50 H5B2       -66.8272   164.7988   206.5789 H            1 NAP402   0.0000
    51 H4B        -65.7961   162.7738   205.6990 H            1 NAP402   0.0000
    52 H3B        -68.6142   162.8866   205.8651 H            1 NAP402   0.0000
    53 H5         -67.6225   161.8932   203.7093 H            1 NAP402   0.0000
    54 H2B        -68.8349   160.6763   206.1345 H            1 NAP402   0.0000
    55 H1B        -66.0199   160.1703   205.8605 H            1 NAP402   0.0000
    56 H8A        -68.9546   160.0812   208.1840 H            1 NAP402   0.0000
    57 H6A1       -66.2662   155.3231   210.9459 H            1 NAP402   0.0000
    58 H6A2       -67.6767   156.3243   210.8573 H            1 NAP402   0.0000
    59 H2A        -63.5302   156.8388   207.6994 H            1 NAP402   0.0000
    60 H5D1       -70.7379   166.8640   210.7708 H            1 NAP402   0.0000
    61 H5D2       -71.0554   166.3003   209.2714 H            1 NAP402   0.0000
    62 H4D        -72.9273   167.3480   210.2259 H            1 NAP402   0.0000
    63 H3D        -72.0382   168.8072   207.8679 H            1 NAP402   0.0000
    64 H16        -72.6350   166.8929   207.0931 H            1 NAP402   0.0000
    65 H2D        -74.0267   170.1345   208.1735 H            1 NAP402   0.0000
    66 H18        -75.3385   169.3275   210.1468 H            1 NAP402   0.0000
    67 H1D        -73.6234   170.3231   210.7748 H            1 NAP402   0.0000
    68 H2N        -73.4835   172.5793   210.6522 H            1 NAP402   0.0000
    69 H7N1       -73.4798   175.8458   211.5247 H            1 NAP402   0.0000
    70 H7N2       -73.4998   174.1154   211.5975 H            1 NAP402   0.0000
    71 H4N        -70.1789   174.2557   208.8610 H            1 NAP402   0.0000
    72 H5N        -69.5049   172.1989   207.9543 H            1 NAP402   0.0000
    73 H6N        -70.5604   170.2203   208.7947 H            1 NAP402   0.0000
@<TRIPOS>BOND
     1    1    2      ar
     2    1    3      ar
     3    1    4       1
     4    1   23       1
     5    4    5       1
     6    5    6       1
     7    6    7       1
     8    6    8       1
     9    7   12       1
    10    8    9       1
    11    8   10       1
    12   10   11       1
    13   10   12       1
    14   11   45       1
    15   12   13       1
    16   13   14       1
    17   13   22       1
    18   14   15       2
    19   15   16       1
    20   16   17      ar
    21   16   22      ar
    22   17   18       1
    23   17   19      ar
    24   19   20      ar
    25   20   21      ar
    26   21   22      ar
    27   23   24       1
    28   24   25      ar
    29   24   26      ar
    30   24   27       1
    31   27   28       1
    32   28   29       1
    33   29   30       1
    34   29   31       1
    35   30   35       1
    36   31   32       1
    37   31   33       1
    38   33   34       1
    39   33   35       1
    40   35   36       1
    41   36   37      ar
    42   36   44      ar
    43   37   38      ar
    44   38   39       1
    45   38   42      ar
    46   39   40       2
    47   39   41      am
    48   42   43      ar
    49   43   44      ar
    50   45   46      ar
    51   45   47      ar
    52   45   48      ar
    53   43   72       1
    54    5   49       1
    55    5   50       1
    56    6   51       1
    57    8   52       1
    58    9   53       1
    59   10   54       1
    60   12   55       1
    61   14   56       1
    62   18   57       1
    63   18   58       1
    64   20   59       1
    65   44   73       1
    66   28   60       1
    67   28   61       1
    68   29   62       1
    69   31   63       1
    70   32   64       1
    71   33   65       1
    72   34   66       1
    73   35   67       1
    74   37   68       1
    75   41   69       1
    76   41   70       1
    77   42   71       1
@<TRIPOS>SUBSTRUCTURE
     1 NAP402      1 GROUP             4 A     NAP     0 **** NAP A 402
