@<TRIPOS>MOLECULE
./coach420/1y30/ligand.pdb
 31 33 0 0 0
SMALL
GASTEIGER

@<TRIPOS>ATOM
      1  N1        12.3410   27.0520   44.5660 N.ar  301  FMN301     -0.1738
      2  C2        12.2860   27.8960   43.4700 C.ar  301  FMN301      0.3726
      3  O2        12.4700   29.0940   43.5490 O.2   301  FMN301     -0.2425
      4  N3        11.9980   27.2780   42.2310 N.ar  301  FMN301     -0.1503
      5  C4        11.7590   25.8850   41.9960 C.ar  301  FMN301      0.3035
      6  O4        11.5200   25.4780   40.8600 O.2   301  FMN301     -0.2633
      7  C4A       11.8250   25.0780   43.1450 C.ar  301  FMN301      0.1706
      8  N5        11.6300   23.7290   43.1580 N.2   301  FMN301     -0.2405
      9  C5A       11.6600   22.8050   44.1780 C.2   301  FMN301      0.0768
     10  C6        11.4080   21.3820   43.9000 C.3   301  FMN301      0.0688
     11  C7        11.4490   20.4260   45.0130 C.2   301  FMN301     -0.0418
     12  C7M       11.1730   18.9600   44.6560 C.3   301  FMN301      0.0264
     13  C8        11.7470   20.9210   46.3970 C.2   301  FMN301     -0.0281
     14  C8M       11.8250   20.0260   47.6780 C.3   301  FMN301      0.0304
     15  C9        11.9870   22.3480   46.5940 C.2   301  FMN301      0.0112
     16  C9A       11.9440   23.3110   45.4790 C.2   301  FMN301      0.0664
     17  N10       12.1640   24.7340   45.5610 N.pl3 301  FMN301     -0.2673
     18  C10       12.1230   25.6940   44.4410 C.ar  301  FMN301      0.1628
     19  C1'       12.4750   25.2440   47.0020 C.3   301  FMN301      0.1325
     20  C2'       11.7010   26.4500   47.6030 C.3   301  FMN301      0.2047
     21  O2'       11.8690   27.6490   46.8460 O.3   301  FMN301     -0.2185
     22  C3'       12.2040   26.7030   49.0330 C.3   301  FMN301      0.2165
     23  O3'       12.0580   25.5460   49.8520 O.3   301  FMN301     -0.2175
     24  C4'       11.4920   27.9440   49.6470 C.3   301  FMN301      0.2147
     25  O4'       12.4310   29.0200   49.5480 O.3   301  FMN301     -0.2176
     26  C5'       10.6330   28.2770   50.9690 C.3   301  FMN301      0.1892
     27  O5'       10.5730   29.6830   51.1680 O.3   301  FMN301     -0.2674
     28  P          9.8360   30.4240   52.3450 P.3   301  FMN301      0.5327
     29  O1P        8.4150   29.9910   52.3470 O.3   301  FMN301     -0.1145
     30  O2P       10.5640   30.0010   53.5580 O.3   301  FMN301     -0.1145
     31  O3P       10.0990   31.8420   52.0550 O.2   301  FMN301     -0.2224
@<TRIPOS>BOND
     1     1     2   ar
     2     1    18   ar
     3     2     4   ar
     4     2     3    2
     5     4     5   ar
     6     5     6    2
     7     5     7   ar
     8     7     8    1
     9     7    18   ar
    10     8     9    2
    11     9    10    1
    12     9    16    1
    13    10    11    1
    14    11    12    1
    15    11    13    2
    16    13    15    1
    17    13    14    1
    18    15    16    2
    19    16    17    1
    20    17    18    1
    21    17    19    1
    22    19    20    1
    23    20    21    1
    24    20    22    1
    25    22    24    1
    26    22    23    1
    27    24    25    1
    28    24    26    1
    29    26    27    1
    30    27    28    1
    31    28    31    2
    32    28    29    1
    33    28    30    1
