@<TRIPOS>MOLECULE
4nbw_NAD_1_ligand
   70    74     1     0     0
SMALL
NO_CHARGES


@<TRIPOS>ATOM
     1 PA          29.7460    68.2150    79.3140 P.3          1 NAD301   0.0000
     2 O1A         31.1180    68.2490    78.7410 O.co2        1 NAD301   0.0000
     3 O2A         29.1080    69.5480    79.2090 O.co2        1 NAD301  -1.0000
     4 O5B         29.8480    67.7900    80.8640 O.3          1 NAD301   0.0000
     5 C5B         30.5470    66.5670    81.1870 C.3          1 NAD301   0.0000
     6 C4B         31.0180    66.6630    82.5870 C.3          1 NAD301   0.0000
     7 O4B         31.4590    65.3470    83.1050 O.3          1 NAD301   0.0000
     8 C3B         32.1510    67.6270    82.6620 C.3          1 NAD301   0.0000
     9 O3B         31.9380    68.6400    83.7050 O.3          1 NAD301   0.0000
    10 C2B         33.3120    66.8370    82.9990 C.3          1 NAD301   0.0000
    11 O2B         34.2480    67.5430    83.8550 O.3          1 NAD301   0.0000
    12 C1B         32.7150    65.6870    83.7250 C.3          1 NAD301   0.0000
    13 N9A         33.5150    64.5640    83.7010 N.pl3        1 NAD301   0.0000
    14 C8A         34.1390    63.9790    82.8400 C.2          1 NAD301   0.0000
    15 N7A         34.7200    63.0860    83.0460 N.2          1 NAD301   0.0000
    16 C5A         34.7330    62.6620    84.1520 C.ar         1 NAD301   0.0000
    17 C6A         35.2230    61.6110    85.1950 C.ar         1 NAD301   0.0000
    18 N6A         36.0530    60.5910    84.7810 N.pl3        1 NAD301   0.0000
    19 N1A         34.7890    61.7280    86.5520 N.ar         1 NAD301   0.0000
    20 C2A         34.0370    62.6790    86.8160 C.ar         1 NAD301   0.0000
    21 N3A         33.6080    63.5330    86.1430 N.ar         1 NAD301   0.0000
    22 C4A         33.7840    63.7190    84.9590 C.ar         1 NAD301   0.0000
    23 O3          28.9070    67.1700    78.4290 O.3          1 NAD301   0.0000
    24 PN          27.2680    67.1570    78.3020 P.3          1 NAD301   0.0000
    25 O1N         26.9070    67.6790    76.9370 O.co2        1 NAD301   0.0000
    26 O2N         26.5530    67.8800    79.4110 O.co2        1 NAD301  -1.0000
    27 O5D         26.8250    65.6450    78.3400 O.3          1 NAD301   0.0000
    28 C5D         26.4300    65.0260    79.5700 C.3          1 NAD301   0.0000
    29 C4D         26.1790    63.5860    79.3200 C.3          1 NAD301   0.0000
    30 O4D         24.9160    63.3810    78.4650 O.3          1 NAD301   0.0000
    31 C3D         27.3380    63.0570    78.6410 C.3          1 NAD301   0.0000
    32 O3D         27.9080    61.9910    79.4530 O.3          1 NAD301   0.0000
    33 C2D         26.9070    62.4990    77.3660 C.3          1 NAD301   0.0000
    34 O2D         26.9960    61.0610    77.5150 O.3          1 NAD301   0.0000
    35 C1D         25.5360    62.9790    77.1630 C.3          1 NAD301   0.0000
    36 N1N         25.0590    63.4300    75.8950 N.ar         1 NAD301   1.0000
    37 C2N         25.1550    64.7900    75.4590 C.ar         1 NAD301   0.0000
    38 C3N         24.7400    65.2440    74.2960 C.ar         1 NAD301   0.0000
    39 C7N         24.9430    66.7180    74.0330 C.2          1 NAD301   0.0000
    40 O7N         24.7900    67.1920    72.9320 O.2          1 NAD301   0.0000
    41 N7N         25.3500    67.5400    75.1070 N.am         1 NAD301   0.0000
    42 C4N         24.2140    64.5170    73.4340 C.ar         1 NAD301   0.0000
    43 C5N         24.0350    63.2840    73.6010 C.ar         1 NAD301   0.0000
    44 C6N         24.4090    62.5840    74.7940 C.ar         1 NAD301   0.0000
    45 H5B1        31.3283    66.4509    80.5737 H            1 NAD301   0.0000
    46 H5B2        29.9284    65.7873    81.0901 H            1 NAD301   0.0000
    47 H4B         30.2689    67.0000    83.1574 H            1 NAD301   0.0000
    48 H3B         32.2834    68.0702    81.7754 H            1 NAD301   0.0000
    49 H5          32.3209    68.3141    84.5694 H            1 NAD301   0.0000
    50 H2B         33.7709    66.5225    82.1681 H            1 NAD301   0.0000
    51 H7          34.0165    67.3738    84.8130 H            1 NAD301   0.0000
    52 H1B         32.5498    65.9505    84.6754 H            1 NAD301   0.0000
    53 H8A         34.1169    64.3334    81.9052 H            1 NAD301   0.0000
    54 H6A1        36.3749    59.9101    85.4389 H            1 NAD301   0.0000
    55 H6A2        36.3331    60.5320    83.8229 H            1 NAD301   0.0000
    56 H2A         33.7472    62.7224    87.7721 H            1 NAD301   0.0000
    57 H5D1        25.5955    65.4585    79.9113 H            1 NAD301   0.0000
    58 H5D2        27.1590    65.1277    80.2469 H            1 NAD301   0.0000
    59 H4D         26.0653    63.1144    80.1945 H            1 NAD301   0.0000
    60 H3D         28.0134    63.7795    78.4931 H            1 NAD301   0.0000
    61 H17         27.7276    62.1751    80.4192 H            1 NAD301   0.0000
    62 H2D         27.5021    62.8129    76.6262 H            1 NAD301   0.0000
    63 H19         26.7103    60.6194    76.6645 H            1 NAD301   0.0000
    64 H1D         25.1126    62.0741    77.1193 H            1 NAD301   0.0000
    65 H2N         25.5704    65.4470    76.0881 H            1 NAD301   0.0000
    66 H7N1        25.4918    68.5191    74.9614 H            1 NAD301   0.0000
    67 H7N2        25.4963    67.1429    76.0130 H            1 NAD301   0.0000
    68 H4N         23.9213    64.9310    72.5721 H            1 NAD301   0.0000
    69 H5N         23.6085    62.7635    72.8613 H            1 NAD301   0.0000
    70 H6N         24.2552    61.6018    74.9020 H            1 NAD301   0.0000
@<TRIPOS>BOND
     1    1    2      ar
     2    1    3      ar
     3    1    4       1
     4    1   23       1
     5    4    5       1
     6    5    6       1
     7    6    7       1
     8    6    8       1
     9    7   12       1
    10    8    9       1
    11    8   10       1
    12   10   11       1
    13   10   12       1
    14   12   13       1
    15   13   14       1
    16   13   22       1
    17   14   15       2
    18   15   16       1
    19   16   17      ar
    20   16   22      ar
    21   17   18       1
    22   17   19      ar
    23   19   20      ar
    24   20   21      ar
    25   21   22      ar
    26   23   24       1
    27   24   25      ar
    28   24   26      ar
    29   24   27       1
    30   27   28       1
    31   28   29       1
    32   29   30       1
    33   29   31       1
    34   30   35       1
    35   31   32       1
    36   31   33       1
    37   33   34       1
    38   33   35       1
    39   35   36       1
    40   36   37      ar
    41   36   44      ar
    42   37   38      ar
    43   38   39       1
    44   38   42      ar
    45   39   40       2
    46   39   41      am
    47   42   43      ar
    48   43   44      ar
    49   44   70       1
    50    5   45       1
    51    5   46       1
    52    6   47       1
    53    8   48       1
    54    9   49       1
    55   10   50       1
    56   11   51       1
    57   12   52       1
    58   14   53       1
    59   18   54       1
    60   18   55       1
    61   20   56       1
    62   43   69       1
    63   28   57       1
    64   28   58       1
    65   29   59       1
    66   31   60       1
    67   32   61       1
    68   33   62       1
    69   34   63       1
    70   35   64       1
    71   37   65       1
    72   41   66       1
    73   41   67       1
    74   42   68       1
@<TRIPOS>SUBSTRUCTURE
     1 NAD301      1 GROUP             4 A     NAD     0 **** NAD A 301
