@<TRIPOS>MOLECULE
2o1o_RIS_1_ligand
   24    24     1     0     0
SMALL
NO_CHARGES


@<TRIPOS>ATOM
     1 O12        -14.6710     9.3980    12.2020 O.co2        1 RIS400   0.0000
     2 P9         -14.3820     8.2380    13.1220 P.3          1 RIS400   0.0000
     3 O11        -13.6220     8.5190    14.3970 O.co2        1 RIS400  -1.0000
     4 O10        -13.7300     7.0180    12.5090 O.co2        1 RIS400  -1.0000
     5 C8         -15.9900     7.6320    13.7040 C.3          1 RIS400   0.0000
     6 O13        -15.8040     6.5060    14.5370 O.3          1 RIS400   0.0000
     7 P14        -16.8700     8.8880    14.6130 P.3          1 RIS400   0.0000
     8 O16        -16.0110     9.3570    15.7120 O.co2        1 RIS400   0.0000
     9 O15        -17.1780     9.9400    13.6250 O.co2        1 RIS400  -1.0000
    10 O17        -17.9890     8.0120    15.0230 O.co2        1 RIS400  -1.0000
    11 C7         -16.7280     7.1260    12.4340 C.3          1 RIS400   0.0000
    12 C2         -18.1340     6.6110    12.7310 C.ar         1 RIS400   0.0000
    13 C1         -19.1770     7.0790    11.9230 C.ar         1 RIS400   0.0000
    14 C6         -20.4240     6.4770    12.0280 C.ar         1 RIS400   0.0000
    15 C5         -20.5950     5.4360    12.9030 C.ar         1 RIS400   0.0000
    16 N4         -19.5920     5.0030    13.6870 N.ar         1 RIS400   0.0000
    17 C3         -18.3750     5.5580    13.6100 C.ar         1 RIS400   0.0000
    18 H1         -14.9818     6.0131    14.2525 H            1 RIS400   0.0000
    19 H2         -16.1947     6.3831    12.0295 H            1 RIS400   0.0000
    20 H3         -16.7957     7.8811    11.7819 H            1 RIS400   0.0000
    21 H4         -19.0270     7.8322    11.2826 H            1 RIS400   0.0000
    22 H5         -21.1893     6.7997    11.4710 H            1 RIS400   0.0000
    23 H6         -21.4871     4.9877    12.9597 H            1 RIS400   0.0000
    24 H7         -17.6347     5.2138    14.1876 H            1 RIS400   0.0000
@<TRIPOS>BOND
     1    1    2      ar
     2    2    3      ar
     3    2    4      ar
     4    2    5       1
     5    5    6       1
     6    5    7       1
     7    5   11       1
     8    7    8      ar
     9    7    9      ar
    10    7   10      ar
    11   11   12       1
    12   12   13      ar
    13   12   17      ar
    14   13   14      ar
    15   14   15      ar
    16   15   16      ar
    17   16   17      ar
    18   17   24       1
    19   15   23       1
    20    6   18       1
    21   14   22       1
    22   13   21       1
    23   11   19       1
    24   11   20       1
@<TRIPOS>SUBSTRUCTURE
     1 RIS400      1 GROUP             4 A     RIS     0 **** RIS A 400
