@<TRIPOS>MOLECULE
4ng2_OHN_1_ligand
   48    48     1     0     0
SMALL
NO_CHARGES


@<TRIPOS>ATOM
     1 C21        -37.6070    33.5970    33.6820 C.3          1 OHN201   0.0000
     2 C20        -38.1510    34.9690    33.4360 C.3          1 OHN201   0.0000
     3 C19        -37.1080    35.9820    33.7890 C.3          1 OHN201   0.0000
     4 C18        -37.1790    37.1500    32.8430 C.3          1 OHN201   0.0000
     5 C17        -38.5200    37.8370    32.9490 C.3          1 OHN201   0.0000
     6 C16        -39.2770    37.7110    31.6330 C.3          1 OHN201   0.0000
     7 C15        -40.6440    38.3070    31.8340 C.3          1 OHN201   0.0000
     8 C14        -41.4760    38.1060    30.5800 C.3          1 OHN201   0.0000
     9 C13        -41.7510    36.6300    30.4140 C.3          1 OHN201   0.0000
    10 C11        -42.7860    36.4570    29.3130 C.2          1 OHN201   0.0000
    11 O12        -43.1640    37.4060    28.6330 O.2          1 OHN201   0.0000
    12 C10        -43.0510    35.0520    28.8200 C.3          1 OHN201   0.0000
    13 C8         -44.2000    35.0450    27.8570 C.2          1 OHN201   0.0000
    14 O9         -43.9860    34.9660    26.6480 O.2          1 OHN201   0.0000
    15 N7         -45.5250    34.8060    28.3990 N.am         1 OHN201   0.0000
    16 C1         -46.6040    34.5190    27.4910 C.3          1 OHN201   0.0000
    17 C5         -47.4890    33.4150    27.9610 C.3          1 OHN201   0.0000
    18 C4         -48.8220    33.8040    27.3610 C.3          1 OHN201   0.0000
    19 C2         -47.5360    35.6400    27.4190 C.2          1 OHN201   0.0000
    20 O6         -47.2260    36.8160    27.4030 O.2          1 OHN201   0.0000
    21 OAP        -48.6430    35.0820    26.8280 O.3          1 OHN201   0.0000
    22 H1         -38.3009    32.9163    33.4474 H            1 OHN201   0.0000
    23 H2         -36.7950    33.4540    33.1161 H            1 OHN201   0.0000
    24 H3         -37.3615    33.5038    34.6469 H            1 OHN201   0.0000
    25 H4         -38.9627    35.1134    34.0019 H            1 OHN201   0.0000
    26 H5         -38.3962    35.0636    32.4712 H            1 OHN201   0.0000
    27 H6         -36.2033    35.5605    33.7265 H            1 OHN201   0.0000
    28 H7         -37.2622    36.3035    34.7233 H            1 OHN201   0.0000
    29 H8         -37.0499    36.8233    31.9067 H            1 OHN201   0.0000
    30 H9         -36.4562    37.8024    33.0710 H            1 OHN201   0.0000
    31 H10        -38.3804    38.8047    33.1591 H            1 OHN201   0.0000
    32 H11        -39.0533    37.4108    33.6797 H            1 OHN201   0.0000
    33 H12        -39.3594    36.7475    31.3782 H            1 OHN201   0.0000
    34 H13        -38.7920    38.2061    30.9121 H            1 OHN201   0.0000
    35 H14        -40.5563    39.2852    32.0221 H            1 OHN201   0.0000
    36 H15        -41.0926    37.8579    32.6067 H            1 OHN201   0.0000
    37 H16        -40.9742    38.4465    29.7849 H            1 OHN201   0.0000
    38 H17        -42.3401    38.6019    30.6662 H            1 OHN201   0.0000
    39 H18        -42.1029    36.2533    31.2709 H            1 OHN201   0.0000
    40 H19        -40.9076    36.1552    30.1626 H            1 OHN201   0.0000
    41 H20        -43.2705    34.4651    29.5993 H            1 OHN201   0.0000
    42 H21        -42.2337    34.7042    28.3606 H            1 OHN201   0.0000
    43 H22        -45.6853    34.8401    29.3855 H            1 OHN201   0.0000
    44 H23        -46.2441    34.3100    26.5817 H            1 OHN201   0.0000
    45 H24        -47.5346    33.3859    28.9595 H            1 OHN201   0.0000
    46 H25        -47.1796    32.5291    27.6154 H            1 OHN201   0.0000
    47 H26        -49.5305    33.8174    28.0666 H            1 OHN201   0.0000
    48 H27        -49.0807    33.1599    26.6411 H            1 OHN201   0.0000
@<TRIPOS>BOND
     1    1    2       1
     2    2    3       1
     3    3    4       1
     4    4    5       1
     5    5    6       1
     6    6    7       1
     7    7    8       1
     8    8    9       1
     9    9   10       1
    10   10   11       2
    11   10   12       1
    12   12   13       1
    13   13   14       2
    14   13   15      am
    15   15   16       1
    16   16   17       1
    17   16   19       1
    18   17   18       1
    19   18   21       1
    20   19   20       2
    21   19   21       1
    22    1   22       1
    23    1   23       1
    24    1   24       1
    25    2   25       1
    26    2   26       1
    27    3   27       1
    28    3   28       1
    29    4   29       1
    30    4   30       1
    31    5   31       1
    32    5   32       1
    33    6   33       1
    34    6   34       1
    35    7   35       1
    36    7   36       1
    37    8   37       1
    38    8   38       1
    39    9   39       1
    40    9   40       1
    41   12   41       1
    42   12   42       1
    43   15   43       1
    44   16   44       1
    45   17   45       1
    46   17   46       1
    47   18   47       1
    48   18   48       1
@<TRIPOS>SUBSTRUCTURE
     1 OHN201      1 GROUP             4 A     OHN     0 **** OHN A 201
