@<TRIPOS>MOLECULE
4g09_0VD_1_ligand
   46    48     1     0     0
SMALL
NO_CHARGES


@<TRIPOS>ATOM
     1 C1          59.7320    38.4840    89.0240 C.2          1 0VD505   0.0000
     2 N1          61.0830    38.5500    89.2750 N.pl3        1 0VD505   0.0000
     3 C2          61.2630    38.2980    90.5510 C.2          1 0VD505   0.0000
     4 N2          60.0830    38.0720    91.1390 N.2          1 0VD505   0.0000
     5 C12         56.2660    43.2970    90.0060 C.ar         1 0VD505   0.0000
     6 C13         55.8120    42.3780    90.9620 C.ar         1 0VD505   0.0000
     7 C4          57.6470    37.9960    90.4840 C.3          1 0VD505   0.0000
     8 C5          57.1160    38.6910    91.7530 C.3          1 0VD505   0.0000
     9 C6          55.5790    38.7470    91.7020 C.2          1 0VD505   0.0000
    10 C8          55.3680    41.0900    90.6130 C.ar         1 0VD505   0.0000
    11 C10         55.8480    41.6520    88.2570 C.ar         1 0VD505   0.0000
    12 C9          55.3970    40.7520    89.2380 C.ar         1 0VD505   0.0000
    13 C7          54.8790    40.1210    91.6810 C.3          1 0VD505   0.0000
    14 C11         56.2890    42.9390    88.6340 C.ar         1 0VD505   0.0000
    15 C19         57.2070    48.0500    86.9510 C.ar         1 0VD505   0.0000
    16 C18         57.6130    48.6870    88.1320 C.ar         1 0VD505   0.0000
    17 C17         58.1560    47.9400    89.1890 C.ar         1 0VD505   0.0000
    18 C20         57.3500    46.6580    86.8360 C.ar         1 0VD505   0.0000
    19 C16         58.2910    46.5490    89.0550 C.ar         1 0VD505   0.0000
    20 C15         57.8920    45.8890    87.8800 C.ar         1 0VD505   0.0000
    21 C14         58.0410    44.4030    87.7460 C.3          1 0VD505   0.0000
    22 N3          57.5070    37.9460    92.9630 N.3          1 0VD505   0.0000
    23 C3          59.1040    38.1850    90.1910 C.2          1 0VD505   0.0000
    24 O1          54.9040    37.6900    91.6930 O.2          1 0VD505   0.0000
    25 O2          56.7260    43.8290    87.6690 O.3          1 0VD505   0.0000
    26 H1          59.2902    38.6303    88.1389 H            1 0VD505   0.0000
    27 H2          61.7985    38.7531    88.6066 H            1 0VD505   0.0000
    28 H3          62.1493    38.2780    91.0138 H            1 0VD505   0.0000
    29 H4          56.5736    44.2047    90.2913 H            1 0VD505   0.0000
    30 H5          55.8035    42.6473    91.9250 H            1 0VD505   0.0000
    31 H6          57.1301    38.3479    89.7037 H            1 0VD505   0.0000
    32 H7          57.4792    37.0148    90.5798 H            1 0VD505   0.0000
    33 H8          57.4817    39.6205    91.8015 H            1 0VD505   0.0000
    34 H9          55.8565    41.3813    87.2944 H            1 0VD505   0.0000
    35 H10         55.0867    39.8441    88.9560 H            1 0VD505   0.0000
    36 H11         55.0171    40.5507    92.5733 H            1 0VD505   0.0000
    37 H12         53.9021    39.9668    91.5330 H            1 0VD505   0.0000
    38 H13         56.8194    48.5817    86.1980 H            1 0VD505   0.0000
    39 H14         57.5153    49.6782    88.2218 H            1 0VD505   0.0000
    40 H15         58.4446    48.3952    90.0313 H            1 0VD505   0.0000
    41 H16         57.0601    46.2042    85.9934 H            1 0VD505   0.0000
    42 H17         58.6780    46.0183    89.8091 H            1 0VD505   0.0000
    43 H18         58.5246    44.0375    88.5413 H            1 0VD505   0.0000
    44 H19         58.5545    44.1871    86.9155 H            1 0VD505   0.0000
    45 H20         57.1523    38.4145    93.7721 H            1 0VD505   0.0000
    46 H21         57.1297    37.0209    92.9213 H            1 0VD505   0.0000
@<TRIPOS>BOND
     1    1    2       1
     2    1   23       2
     3    2    3       1
     4    3    4       2
     5    4   23       1
     6    5    6      ar
     7    5   14      ar
     8    6   10      ar
     9    7    8       1
    10    7   23       1
    11    8    9       1
    12    8   22       1
    13    9   13       1
    14    9   24       2
    15   10   12      ar
    16   10   13       1
    17   11   12      ar
    18   11   14      ar
    19   14   25       1
    20   15   16      ar
    21   15   18      ar
    22   16   17      ar
    23   17   19      ar
    24   18   20      ar
    25   19   20      ar
    26   20   21       1
    27   21   25       1
    28    1   26       1
    29    2   27       1
    30    3   28       1
    31    5   29       1
    32    6   30       1
    33    7   31       1
    34    7   32       1
    35    8   33       1
    36   11   34       1
    37   12   35       1
    38   13   36       1
    39   13   37       1
    40   15   38       1
    41   16   39       1
    42   17   40       1
    43   18   41       1
    44   19   42       1
    45   21   43       1
    46   21   44       1
    47   22   46       1
    48   22   45       1
@<TRIPOS>SUBSTRUCTURE
     1 0VD505      1 GROUP             4 A     0VD     0 **** 0VD A 505
