@<TRIPOS>MOLECULE
3phj_DHK_1_ligand
   21    21     1     0     0
SMALL
NO_CHARGES


@<TRIPOS>ATOM
     1 C2          13.7180    -1.4260    42.6610 C.3          1 DHK500   0.0000
     2 C3          14.2020    -1.6580    43.9060 C.2          1 DHK500   0.0000
     3 O3          14.0010    -2.8430    44.4800 O.2          1 DHK500   0.0000
     4 C4          14.9600    -0.5620    44.6210 C.3          1 DHK500   0.0000
     5 O4          15.6690    -1.0910    45.7270 O.3          1 DHK500   0.0000
     6 C5          16.0170     0.0610    43.7100 C.3          1 DHK500   0.0000
     7 C1          14.6010    -0.6370    41.7460 C.3          1 DHK500   0.0000
     8 C6          15.2880     0.5430    42.4690 C.3          1 DHK500   0.0000
     9 C           13.9880    -0.3090    40.4080 C.2          1 DHK500   0.0000
    10 O1          14.3940     0.7510    39.7620 O.co2        1 DHK500   0.0000
    11 O2          13.1200    -1.1140    39.8020 O.co2        1 DHK500  -1.0000
    12 O5          16.7280     1.1490    44.3810 O.3          1 DHK500   0.0000
    13 H1          12.8556    -0.9289    42.7565 H            1 DHK500   0.0000
    14 H2          13.5461    -2.3120    42.2303 H            1 DHK500   0.0000
    15 H3          14.3229     0.1430    44.9326 H            1 DHK500   0.0000
    16 H4          15.0887    -1.0598    46.5408 H            1 DHK500   0.0000
    17 H5          16.6756    -0.6440    43.4468 H            1 DHK500   0.0000
    18 H6          15.3504    -1.2619    41.5272 H            1 DHK500   0.0000
    19 H7          15.9447     0.9709    41.8480 H            1 DHK500   0.0000
    20 H8          14.5951     1.2132    42.7349 H            1 DHK500   0.0000
    21 H9          16.1199     1.5856    45.0440 H            1 DHK500   0.0000
@<TRIPOS>BOND
     1    1    2       1
     2    1    7       1
     3    2    3       2
     4    2    4       1
     5    4    5       1
     6    4    6       1
     7    6    8       1
     8    6   12       1
     9    7    8       1
    10    7    9       1
    11    9   10      ar
    12    9   11      ar
    13    1   13       1
    14    1   14       1
    15    4   15       1
    16    5   16       1
    17    6   17       1
    18    7   18       1
    19    8   19       1
    20    8   20       1
    21   12   21       1
@<TRIPOS>SUBSTRUCTURE
     1 DHK500      1 GROUP             4 A     DHK     0 **** DHK A 500
