@<TRIPOS>MOLECULE
3upf_0BU_1_ligand
   87    93     1     0     0
SMALL
NO_CHARGES


@<TRIPOS>ATOM
     1 OAA         12.6050   -58.4370    43.4830 O.2          1 0BU600   0.0000
     2 OAB         13.4030   -59.9900    48.6490 O.2          1 0BU600   0.0000
     3 OAC         13.7630   -59.6250    37.0770 O.3          1 0BU600   0.0000
     4 OAD         17.3240   -60.5210    56.6350 O.co2        1 0BU600   0.0000
     5 OAE         19.2250   -60.9310    55.0630 O.co2        1 0BU600   0.0000
     6 OAF         16.7660   -65.5960    32.3210 O.co2        1 0BU600   0.0000
     7 OAG         18.4070   -64.3670    33.7720 O.co2        1 0BU600   0.0000
     8 OAH         13.1100   -62.8960    54.4470 O.co2        1 0BU600   0.0000
     9 OAI         13.9520   -61.0160    55.8830 O.co2        1 0BU600   0.0000
    10 OAJ         16.1030   -61.0110    31.3040 O.co2        1 0BU600   0.0000
    11 OAK         14.1170   -62.1880    30.3410 O.co2        1 0BU600   0.0000
    12 OAL         18.4450   -57.3480    50.7490 O.co2        1 0BU600   0.0000
    13 OAM         17.1090   -58.8860    49.3140 O.co2        1 0BU600   0.0000
    14 OAN         13.2580   -61.7930    38.0680 O.3          1 0BU600   0.0000
    15 OAO         12.2260   -63.9840    37.4060 O.2          1 0BU600   0.0000
    16 OAP         18.7730   -58.6240    55.9180 O.co2        1 0BU600  -1.0000
    17 OAQ         17.1090   -66.3270    34.6460 O.co2        1 0BU600  -1.0000
    18 OAR         11.5870   -61.0230    55.0960 O.co2        1 0BU600  -1.0000
    19 OAS         14.1750   -59.6800    30.4500 O.co2        1 0BU600  -1.0000
    20 OAT         16.0790   -56.7650    50.1420 O.co2        1 0BU600  -1.0000
    21 OAU         14.5170   -63.9250    38.4180 O.2          1 0BU600   0.0000
    22 CAV         14.6410   -56.0810    46.4680 C.ar         1 0BU600   0.0000
    23 CAW         10.6810   -59.8910    40.4400 C.ar         1 0BU600   0.0000
    24 CAX         14.7720   -56.7160    45.2370 C.ar         1 0BU600   0.0000
    25 CAY         11.6460   -59.6500    41.4180 C.ar         1 0BU600   0.0000
    26 CAZ         14.4110   -56.8350    47.6150 C.ar         1 0BU600   0.0000
    27 CBA         11.0320   -60.1080    39.1090 C.ar         1 0BU600   0.0000
    28 CBB         12.9560   -59.6410    51.0810 C.ar         1 0BU600   0.0000
    29 CBC         12.3080   -60.2260    34.4950 C.ar         1 0BU600   0.0000
    30 CBD         12.5900   -60.3290    52.2300 C.ar         1 0BU600   0.0000
    31 CBE         12.8640   -60.1720    33.2220 C.ar         1 0BU600   0.0000
    32 CBF         14.4350   -58.8570    46.3010 C.ar         1 0BU600   0.0000
    33 CBG         13.3330   -59.8550    39.7320 C.ar         1 0BU600   0.0000
    34 CBH         17.3900   -58.9750    52.9470 C.ar         1 0BU600   0.0000
    35 CBI         15.1940   -63.9790    35.5450 C.ar         1 0BU600   0.0000
    36 CBJ         15.7030   -60.1680    54.1700 C.ar         1 0BU600   0.0000
    37 CBK         15.2930   -62.9420    33.3840 C.ar         1 0BU600   0.0000
    38 NBL         14.7950   -58.6920    43.9590 N.am         1 0BU600   0.0000
    39 NBM         13.9610   -59.4230    41.9550 N.am         1 0BU600   0.0000
    40 NBN         14.5650   -58.4580    49.8400 N.am         1 0BU600   0.0000
    41 NBO         12.2000   -61.2010    36.6370 N.pl3        1 0BU600   0.0000
    42 CBP         13.7240   -58.8300    43.1490 C.2          1 0BU600   0.0000
    43 CBQ         14.0680   -58.9580    48.6940 C.2          1 0BU600   0.0000
    44 CBR         12.8060   -60.2930    37.4480 C.3          1 0BU600   0.0000
    45 CBS         14.6580   -58.1020    45.1480 C.ar         1 0BU600   0.0000
    46 CBT         12.9860   -59.6290    41.0620 C.ar         1 0BU600   0.0000
    47 CBU         14.3160   -58.2230    47.5380 C.ar         1 0BU600   0.0000
    48 CBV         12.3730   -60.1080    38.7560 C.ar         1 0BU600   0.0000
    49 CBW         16.9990   -59.6690    54.0900 C.ar         1 0BU600   0.0000
    50 CBX         15.7480   -63.9210    34.2670 C.ar         1 0BU600   0.0000
    51 CBY         14.2430   -59.1270    50.9520 C.ar         1 0BU600   0.0000
    52 CBZ         12.7260   -61.1960    35.3990 C.ar         1 0BU600   0.0000
    53 CCA         13.5100   -60.5010    53.2560 C.ar         1 0BU600   0.0000
    54 CCB         13.8530   -61.0740    32.8440 C.ar         1 0BU600   0.0000
    55 CCC         16.4900   -58.7780    51.8990 C.ar         1 0BU600   0.0000
    56 CCD         14.2000   -63.0780    35.9270 C.ar         1 0BU600   0.0000
    57 CCE         14.8000   -59.9810    53.1290 C.ar         1 0BU600   0.0000
    58 CCF         14.2930   -62.0370    33.7610 C.ar         1 0BU600   0.0000
    59 CCG         15.1860   -59.2840    51.9790 C.ar         1 0BU600   0.0000
    60 CCH         13.7380   -62.1020    35.0460 C.ar         1 0BU600   0.0000
    61 SCI         18.1290   -59.9410    55.4710 S.o2         1 0BU600   0.0000
    62 SCJ         17.0590   -65.0960    33.7430 S.o2         1 0BU600   0.0000
    63 SCK         13.0250   -61.3910    54.7240 S.o2         1 0BU600   0.0000
    64 SCL         14.5760   -60.9780    31.1620 S.o2         1 0BU600   0.0000
    65 SCM         17.0440   -57.9050    50.4860 S.o2         1 0BU600   0.0000
    66 SCN         13.5330   -63.1910    37.5040 S.o2         1 0BU600   0.0000
    67 HAC         13.9529   -59.8204    36.1148 H            1 0BU600   0.0000
    68 HAV         14.7119   -55.0854    46.5285 H            1 0BU600   0.0000
    69 HAW          9.7155   -59.9084    40.6999 H            1 0BU600   0.0000
    70 HAX         14.9484   -56.1763    44.4138 H            1 0BU600   0.0000
    71 HAY         11.3738   -59.4938    42.3675 H            1 0BU600   0.0000
    72 HAZ         14.3134   -56.3781    48.4992 H            1 0BU600   0.0000
    73 HBA         10.3261   -60.2617    38.4175 H            1 0BU600   0.0000
    74 HBB         12.2926   -59.5143    50.3435 H            1 0BU600   0.0000
    75 HBC         11.6058   -59.5656    34.7611 H            1 0BU600   0.0000
    76 HBD         11.6656   -60.7000    52.3187 H            1 0BU600   0.0000
    77 HBE         12.5504   -59.4791    32.5728 H            1 0BU600   0.0000
    78 HBF         14.3606   -59.8524    46.2402 H            1 0BU600   0.0000
    79 HBG         14.2982   -59.8350    39.4711 H            1 0BU600   0.0000
    80 HBH         18.3208   -58.6161    52.8772 H            1 0BU600   0.0000
    81 HBI         15.5116   -64.6716    36.1926 H            1 0BU600   0.0000
    82 HBJ         15.4167   -60.6681    54.9873 H            1 0BU600   0.0000
    83 HBK         15.6873   -62.8854    32.4667 H            1 0BU600   0.0000
    84 HBL         15.6897   -59.0314    43.6685 H            1 0BU600   0.0000
    85 HBM         14.8915   -59.7154    41.7342 H            1 0BU600   0.0000
    86 HBN         15.1383   -57.6388    49.8589 H            1 0BU600   0.0000
    87 HBO         11.4534   -61.8001    36.9261 H            1 0BU600   0.0000
@<TRIPOS>BOND
     1    1   42       2
     2    2   43       2
     3    3   44       1
     4    4   61      ar
     5    5   61      ar
     6    6   62      ar
     7    7   62      ar
     8    8   63      ar
     9    9   63      ar
    10   10   64      ar
    11   11   64      ar
    12   12   65      ar
    13   13   65      ar
    14   14   44       1
    15   14   66       1
    16   15   66       2
    17   16   61      ar
    18   17   62      ar
    19   18   63      ar
    20   19   64      ar
    21   20   65      ar
    22   21   66       2
    23   22   24      ar
    24   22   26      ar
    25   23   25      ar
    26   23   27      ar
    27   24   45      ar
    28   25   46      ar
    29   26   47      ar
    30   27   48      ar
    31   28   30      ar
    32   28   51      ar
    33   29   31      ar
    34   29   52      ar
    35   30   53      ar
    36   31   54      ar
    37   32   45      ar
    38   32   47      ar
    39   33   46      ar
    40   33   48      ar
    41   34   49      ar
    42   34   55      ar
    43   35   50      ar
    44   35   56      ar
    45   36   49      ar
    46   36   57      ar
    47   37   50      ar
    48   37   58      ar
    49   38   42      am
    50   38   45       1
    51   39   42      am
    52   39   46       1
    53   40   43      am
    54   40   51       1
    55   41   44       1
    56   41   52       1
    57   43   47       1
    58   44   48       1
    59   49   61       1
    60   50   62       1
    61   51   59      ar
    62   52   60      ar
    63   53   57      ar
    64   53   63       1
    65   54   58      ar
    66   54   64       1
    67   55   59      ar
    68   55   65       1
    69   56   60      ar
    70   56   66       1
    71   57   59      ar
    72   58   60      ar
    73    3   67       1
    74   41   87       1
    75   40   86       1
    76   39   85       1
    77   38   84       1
    78   37   83       1
    79   22   68       1
    80   23   69       1
    81   24   70       1
    82   25   71       1
    83   26   72       1
    84   27   73       1
    85   28   74       1
    86   29   75       1
    87   30   76       1
    88   31   77       1
    89   32   78       1
    90   33   79       1
    91   34   80       1
    92   35   81       1
    93   36   82       1
@<TRIPOS>SUBSTRUCTURE
     1 0BU600      1 GROUP             4 A     0BU     0 **** 0BU A 600
