@<TRIPOS>MOLECULE
2v74_SAH_1_ligand
   46    48     1     0     0
SMALL
NO_CHARGES


@<TRIPOS>ATOM
     1 N          -15.8040    16.9140   -90.6740 N.4          1 SAH1478   1.0000
     2 CA         -14.4500    16.3890   -90.3380 C.3          1 SAH1478   0.0000
     3 CB         -13.5270    17.4790   -89.7950 C.3          1 SAH1478   0.0000
     4 CG         -14.0350    18.2450   -88.5810 C.3          1 SAH1478   0.0000
     5 SD         -12.7750    19.3270   -87.8510 S.3          1 SAH1478   0.0000
     6 C          -14.5600    15.2110   -89.3730 C.2          1 SAH1478   0.0000
     7 O          -13.5740    14.5480   -89.0270 O.co2        1 SAH1478   0.0000
     8 OXT        -15.6530    14.8860   -88.9210 O.co2        1 SAH1478  -1.0000
     9 C5'        -13.4200    20.8190   -88.6600 C.3          1 SAH1478   0.0000
    10 C4'        -12.9000    21.0910   -90.0760 C.3          1 SAH1478   0.0000
    11 O4'        -13.6450    22.1410   -90.6610 O.3          1 SAH1478   0.0000
    12 C3'        -11.4400    21.5190   -90.1260 C.3          1 SAH1478   0.0000
    13 O3'        -10.8290    20.8540   -91.2060 O.3          1 SAH1478   0.0000
    14 C2'        -11.4700    23.0100   -90.3800 C.3          1 SAH1478   0.0000
    15 O2'        -10.4250    23.4440   -91.2070 O.3          1 SAH1478   0.0000
    16 C1'        -12.7930    23.1850   -91.0960 C.3          1 SAH1478   0.0000
    17 N9         -13.3870    24.5050   -90.8300 N.pl3        1 SAH1478   0.0000
    18 C8         -13.4090    25.1960   -89.6450 C.2          1 SAH1478   0.0000
    19 N7         -14.0490    26.3680   -89.8440 N.2          1 SAH1478   0.0000
    20 C5         -14.4330    26.4300   -91.1370 C.ar         1 SAH1478   0.0000
    21 C6         -15.1150    27.3920   -91.8740 C.ar         1 SAH1478   0.0000
    22 N6         -15.5160    28.5140   -91.2940 N.pl3        1 SAH1478   0.0000
    23 N1         -15.3810    27.1840   -93.2110 N.ar         1 SAH1478   0.0000
    24 C2         -14.9610    26.0190   -93.8250 C.ar         1 SAH1478   0.0000
    25 N3         -14.2790    25.0650   -93.0830 N.ar         1 SAH1478   0.0000
    26 C4         -14.0230    25.2670   -91.7660 C.ar         1 SAH1478   0.0000
    27 H1         -16.1914    16.3802   -91.4256 H            1 SAH1478   0.0000
    28 H2         -16.3979    16.8414   -89.8728 H            1 SAH1478   0.0000
    29 HA         -14.0430    16.0459   -91.1846 H            1 SAH1478   0.0000
    30 HB1        -13.3699    18.1396   -90.5291 H            1 SAH1478   0.0000
    31 HB2        -12.6605    17.0479   -89.5434 H            1 SAH1478   0.0000
    32 HG1        -14.3300    17.5864   -87.8887 H            1 SAH1478   0.0000
    33 HG2        -14.8141    18.8060   -88.8608 H            1 SAH1478   0.0000
    34 H5'1       -13.1805    21.6046   -88.0895 H            1 SAH1478   0.0000
    35 H5'2       -14.4152    20.7344   -88.7101 H            1 SAH1478   0.0000
    36 H4'        -13.0150    20.2651   -90.6280 H            1 SAH1478   0.0000
    37 H3'        -10.9747    21.3103   -89.2658 H            1 SAH1478   0.0000
    38 H12        -11.2917    21.1043   -92.0564 H            1 SAH1478   0.0000
    39 H2'        -11.4679    23.5142   -89.5164 H            1 SAH1478   0.0000
    40 H14        -10.4871    22.9831   -92.0923 H            1 SAH1478   0.0000
    41 H1'        -12.6428    23.0906   -92.0801 H            1 SAH1478   0.0000
    42 H16        -13.0170    24.8841   -88.7795 H            1 SAH1478   0.0000
    43 H17        -16.0063    29.2043   -91.8260 H            1 SAH1478   0.0000
    44 H18        -15.3283    28.6703   -90.3243 H            1 SAH1478   0.0000
    45 H19        -15.1470    25.8650   -94.7954 H            1 SAH1478   0.0000
    46 H20        -15.7310    17.8727   -90.9490 H            1 SAH1478   0.0000
@<TRIPOS>BOND
     1    1    2       1
     2    2    3       1
     3    2    6       1
     4    3    4       1
     5    4    5       1
     6    5    9       1
     7    6    7      ar
     8    6    8      ar
     9    9   10       1
    10   10   11       1
    11   10   12       1
    12   11   16       1
    13   12   13       1
    14   12   14       1
    15   14   15       1
    16   14   16       1
    17   16   17       1
    18   17   18       1
    19   17   26       1
    20   18   19       2
    21   19   20       1
    22   20   21      ar
    23   20   26      ar
    24   21   22       1
    25   21   23      ar
    26   23   24      ar
    27   24   25      ar
    28   25   26      ar
    29    1   27       1
    30    1   28       1
    31    2   29       1
    32    3   30       1
    33    3   31       1
    34    4   32       1
    35    4   33       1
    36    1   46       1
    37    9   34       1
    38    9   35       1
    39   10   36       1
    40   12   37       1
    41   13   38       1
    42   14   39       1
    43   15   40       1
    44   16   41       1
    45   18   42       1
    46   22   43       1
    47   22   44       1
    48   24   45       1
@<TRIPOS>SUBSTRUCTURE
     1 SAH1478     1 GROUP             4 B     SAH     0 **** SAH B1478
