@<TRIPOS>MOLECULE
3pm9_FAD_5_ligand
   84    89     1     0     0
SMALL
NO_CHARGES


@<TRIPOS>ATOM
     1 PA          34.0420   180.8670   -18.1990 P.3          1 FAD476   0.0000
     2 O1A         33.4780   181.5090   -19.4280 O.co2        1 FAD476   0.0000
     3 O2A         34.4990   179.4920   -18.5550 O.co2        1 FAD476  -1.0000
     4 O5B         32.9610   180.8430   -17.0300 O.3          1 FAD476   0.0000
     5 C5B         33.2540   180.2660   -15.7880 C.3          1 FAD476   0.0000
     6 C4B         32.1640   180.5930   -14.7710 C.3          1 FAD476   0.0000
     7 O4B         32.2340   181.9580   -14.4730 O.3          1 FAD476   0.0000
     8 C3B         30.7380   180.3270   -15.2480 C.3          1 FAD476   0.0000
     9 O3B         29.9190   179.8970   -14.1640 O.3          1 FAD476   0.0000
    10 C2B         30.2910   181.6740   -15.7700 C.3          1 FAD476   0.0000
    11 O2B         28.8920   181.8850   -15.7210 O.3          1 FAD476   0.0000
    12 C1B         31.0170   182.6010   -14.8310 C.3          1 FAD476   0.0000
    13 N9A         31.3590   183.8960   -15.4060 N.pl3        1 FAD476   0.0000
    14 C8A         32.2060   184.1390   -16.4500 C.2          1 FAD476   0.0000
    15 N7A         32.2730   185.4670   -16.6400 N.2          1 FAD476   0.0000
    16 C5A         31.4880   186.0620   -15.7260 C.ar         1 FAD476   0.0000
    17 C6A         31.2090   187.3970   -15.4840 C.ar         1 FAD476   0.0000
    18 N6A         32.1230   188.3080   -15.8270 N.pl3        1 FAD476   0.0000
    19 N1A         30.3450   187.6830   -14.4550 N.ar         1 FAD476   0.0000
    20 C2A         29.7760   186.6800   -13.6790 C.ar         1 FAD476   0.0000
    21 N3A         30.0680   185.3610   -13.9420 N.ar         1 FAD476   0.0000
    22 C4A         30.9150   185.0710   -14.9410 C.ar         1 FAD476   0.0000
    23 N1          41.2400   176.7910   -13.0730 N.2          1 FAD476   0.0000
    24 C2          41.9900   177.0670   -11.9570 C.2          1 FAD476   0.0000
    25 O2          41.4430   177.5630   -10.9680 O.2          1 FAD476   0.0000
    26 N3          43.3480   176.7820   -11.9500 N.pl3        1 FAD476   0.0000
    27 C4          43.9580   176.2270   -13.0660 C.2          1 FAD476   0.0000
    28 O4          45.1660   175.9760   -13.0450 O.2          1 FAD476   0.0000
    29 C4X         43.1970   175.9540   -14.2050 C.2          1 FAD476   0.0000
    30 N5          43.7960   175.4050   -15.3110 N.2          1 FAD476   0.0000
    31 C5X         43.0510   175.1400   -16.4300 C.ar         1 FAD476   0.0000
    32 C6          43.7080   174.5840   -17.5330 C.ar         1 FAD476   0.0000
    33 C7          43.0140   174.2810   -18.7050 C.ar         1 FAD476   0.0000
    34 C7M         43.7700   173.6840   -19.8670 C.3          1 FAD476   0.0000
    35 C8          41.6300   174.5490   -18.7710 C.ar         1 FAD476   0.0000
    36 C8M         40.8330   174.2440   -20.0170 C.3          1 FAD476   0.0000
    37 C9          40.9740   175.1110   -17.6640 C.ar         1 FAD476   0.0000
    38 C9A         41.6650   175.4180   -16.4690 C.ar         1 FAD476   0.0000
    39 N10         41.0300   175.9930   -15.3330 N.pl3        1 FAD476   0.0000
    40 C10         41.8170   176.2410   -14.2080 C.2          1 FAD476   0.0000
    41 C1'         39.5270   176.3110   -15.2560 C.3          1 FAD476   0.0000
    42 C2'         39.2040   177.7500   -14.7980 C.3          1 FAD476   0.0000
    43 O2'         38.0840   177.8670   -13.9140 O.3          1 FAD476   0.0000
    44 C3'         38.8840   178.5680   -15.9800 C.3          1 FAD476   0.0000
    45 O3'         39.9500   178.3480   -16.9030 O.3          1 FAD476   0.0000
    46 C4'         38.6860   180.0530   -15.5480 C.3          1 FAD476   0.0000
    47 O4'         38.7860   180.2750   -14.1400 O.3          1 FAD476   0.0000
    48 C5'         37.3290   180.5850   -16.0020 C.3          1 FAD476   0.0000
    49 O5'         37.5320   181.7670   -16.7390 O.3          1 FAD476   0.0000
    50 P           36.6650   181.9730   -18.0570 P.3          1 FAD476   0.0000
    51 O1P         36.8690   183.3820   -18.5680 O.co2        1 FAD476   0.0000
    52 O2P         37.0000   180.9210   -19.0920 O.co2        1 FAD476  -1.0000
    53 O3P         35.1590   181.8030   -17.5080 O.3          1 FAD476   0.0000
    54 H5B1        34.1282   180.6225   -15.4584 H            1 FAD476   0.0000
    55 H5B2        33.3173   179.2736   -15.8938 H            1 FAD476   0.0000
    56 H4B         32.3306   180.0688   -13.9358 H            1 FAD476   0.0000
    57 H3B         30.7344   179.6475   -15.9817 H            1 FAD476   0.0000
    58 H5          29.4990   180.6927   -13.7275 H            1 FAD476   0.0000
    59 H2B         30.6234   181.8054   -16.7039 H            1 FAD476   0.0000
    60 H7          28.5470   182.0489   -16.6452 H            1 FAD476   0.0000
    61 H1B         30.4630   182.7400   -14.0102 H            1 FAD476   0.0000
    62 H8A         32.6930   183.4463   -16.9820 H            1 FAD476   0.0000
    63 H6A1        31.9472   189.2788   -15.6635 H            1 FAD476   0.0000
    64 H6A2        32.9833   188.0195   -16.2474 H            1 FAD476   0.0000
    65 H2A         29.1557   186.9163   -12.9311 H            1 FAD476   0.0000
    66 H13         43.8916   176.9782   -11.1339 H            1 FAD476   0.0000
    67 H14         44.6897   174.4010   -17.4807 H            1 FAD476   0.0000
    68 H7M1        43.1405   173.5242   -20.6274 H            1 FAD476   0.0000
    69 H7M2        44.4891   174.3157   -20.1567 H            1 FAD476   0.0000
    70 H7M3        44.1812   172.8166   -19.5868 H            1 FAD476   0.0000
    71 H8M1        39.8775   174.5012   -19.8728 H            1 FAD476   0.0000
    72 H8M2        41.2054   174.7631   -20.7863 H            1 FAD476   0.0000
    73 H8M3        40.8884   173.2658   -20.2170 H            1 FAD476   0.0000
    74 H21         39.9935   175.2989   -17.7221 H            1 FAD476   0.0000
    75 H1'1        39.1050   175.6747   -14.6101 H            1 FAD476   0.0000
    76 H1'2        39.1313   176.1753   -16.1643 H            1 FAD476   0.0000
    77 H2'         40.0107   178.1341   -14.3489 H            1 FAD476   0.0000
    78 H25         38.3967   177.7872   -12.9675 H            1 FAD476   0.0000
    79 H3'         38.0328   178.2329   -16.3839 H            1 FAD476   0.0000
    80 H27         39.6063   178.4408   -17.8375 H            1 FAD476   0.0000
    81 H4'         39.3943   180.5991   -15.9952 H            1 FAD476   0.0000
    82 H29         39.1330   181.1977   -13.9718 H            1 FAD476   0.0000
    83 H5'1        36.7595   180.7799   -15.2034 H            1 FAD476   0.0000
    84 H5'2        36.8755   179.9037   -16.5766 H            1 FAD476   0.0000
@<TRIPOS>BOND
     1    1    2      ar
     2    1    3      ar
     3    1    4       1
     4    1   53       1
     5    4    5       1
     6    5    6       1
     7    6    7       1
     8    6    8       1
     9    7   12       1
    10    8    9       1
    11    8   10       1
    12   10   11       1
    13   10   12       1
    14   12   13       1
    15   13   14       1
    16   13   22       1
    17   14   15       2
    18   15   16       1
    19   16   17      ar
    20   16   22      ar
    21   17   18       1
    22   17   19      ar
    23   19   20      ar
    24   20   21      ar
    25   21   22      ar
    26   23   24       1
    27   23   40       2
    28   24   25       2
    29   24   26       1
    30   26   27       1
    31   27   28       2
    32   27   29       1
    33   29   30       2
    34   29   40       1
    35   30   31       1
    36   31   32      ar
    37   31   38      ar
    38   32   33      ar
    39   33   34       1
    40   33   35      ar
    41   35   36       1
    42   35   37      ar
    43   37   38      ar
    44   38   39       1
    45   39   40       1
    46   39   41       1
    47   41   42       1
    48   42   43       1
    49   42   44       1
    50   44   45       1
    51   44   46       1
    52   46   47       1
    53   46   48       1
    54   48   49       1
    55   49   50       1
    56   50   51      ar
    57   50   52      ar
    58   50   53       1
    59   48   84       1
    60    5   54       1
    61    5   55       1
    62    6   56       1
    63    8   57       1
    64    9   58       1
    65   10   59       1
    66   11   60       1
    67   12   61       1
    68   14   62       1
    69   18   63       1
    70   18   64       1
    71   20   65       1
    72   26   66       1
    73   32   67       1
    74   34   68       1
    75   34   69       1
    76   34   70       1
    77   36   71       1
    78   36   72       1
    79   36   73       1
    80   37   74       1
    81   41   75       1
    82   41   76       1
    83   42   77       1
    84   43   78       1
    85   44   79       1
    86   45   80       1
    87   46   81       1
    88   47   82       1
    89   48   83       1
@<TRIPOS>SUBSTRUCTURE
     1 FAD476      1 GROUP             4 E     FAD     0 **** FAD E 476
