@<TRIPOS>MOLECULE
4qnw_FMN_1_ligand
   50    52     1     0     0
SMALL
NO_CHARGES


@<TRIPOS>ATOM
     1 N1           3.2450     8.8080    10.0880 N.2          1 FMN401   0.0000
     2 C2           3.4160     7.4260    10.1480 C.2          1 FMN401   0.0000
     3 O2           3.7750     6.8660    11.1750 O.2          1 FMN401   0.0000
     4 N3           3.3630     6.7050     8.9830 N.pl3        1 FMN401   0.0000
     5 C4           2.9440     7.2220     7.7900 C.2          1 FMN401   0.0000
     6 O4           2.9840     6.5420     6.7860 O.2          1 FMN401   0.0000
     7 C4A          2.7080     8.5770     7.7310 C.2          1 FMN401   0.0000
     8 N5           2.3330     9.1330     6.5200 N.2          1 FMN401   0.0000
     9 C5A          2.2800    10.5300     6.4290 C.ar         1 FMN401   0.0000
    10 C6           1.9980    11.1490     5.2240 C.ar         1 FMN401   0.0000
    11 C7           1.9950    12.5450     5.1400 C.ar         1 FMN401   0.0000
    12 C7M          1.9470    13.1840     3.7490 C.3          1 FMN401   0.0000
    13 C8           2.2070    13.3430     6.2750 C.ar         1 FMN401   0.0000
    14 C8M          2.5720    14.8480     6.1690 C.3          1 FMN401   0.0000
    15 C9           2.4870    12.7160     7.5020 C.ar         1 FMN401   0.0000
    16 C9A          2.5370    11.3160     7.5760 C.ar         1 FMN401   0.0000
    17 N10          2.8650    10.7190     8.7820 N.pl3        1 FMN401   0.0000
    18 C10          2.9370     9.3610     8.8750 C.2          1 FMN401   0.0000
    19 C1'          3.2650    11.5370     9.9580 C.3          1 FMN401   0.0000
    20 C2'          4.7650    11.9230     9.8750 C.3          1 FMN401   0.0000
    21 O2'          5.5960    10.8470    10.1520 O.3          1 FMN401   0.0000
    22 C3'          5.0820    12.9920    10.9260 C.3          1 FMN401   0.0000
    23 O3'          4.7750    12.5470    12.2450 O.3          1 FMN401   0.0000
    24 C4'          4.2570    14.2490    10.6120 C.3          1 FMN401   0.0000
    25 O4'          4.5660    14.6860     9.3130 O.3          1 FMN401   0.0000
    26 C5'          4.4970    15.4430    11.5560 C.3          1 FMN401   0.0000
    27 O5'          5.8130    15.8750    11.4540 O.3          1 FMN401   0.0000
    28 P            6.2440    17.2000    10.5820 P.3          1 FMN401   0.0000
    29 O1P          5.8300    18.3900    11.3900 O.co2        1 FMN401   0.0000
    30 O2P          5.5370    17.0850     9.2270 O.co2        1 FMN401  -1.0000
    31 O3P          7.7430    17.0980    10.5400 O.co2        1 FMN401  -1.0000
    32 H1           3.6471     5.7465     9.0080 H            1 FMN401   0.0000
    33 H2           1.7965    10.5985     4.4138 H            1 FMN401   0.0000
    34 H7M1         1.9500    14.1799     3.8394 H            1 FMN401   0.0000
    35 H7M2         2.7458    12.8947     3.2215 H            1 FMN401   0.0000
    36 H7M3         1.1138    12.8946     3.2778 H            1 FMN401   0.0000
    37 H8M1         2.6794    15.2304     7.0867 H            1 FMN401   0.0000
    38 H8M2         3.4291    14.9483     5.6637 H            1 FMN401   0.0000
    39 H8M3         1.8427    15.3348     5.6883 H            1 FMN401   0.0000
    40 H9           2.6502    13.2670     8.3204 H            1 FMN401   0.0000
    41 H1'1         3.1078    11.0097    10.7930 H            1 FMN401   0.0000
    42 H1'2         2.7127    12.3703     9.9810 H            1 FMN401   0.0000
    43 H2'          4.9697    12.2785     8.9630 H            1 FMN401   0.0000
    44 H13          5.8040    10.3595     9.3040 H            1 FMN401   0.0000
    45 H3'          6.0545    13.2195    10.8767 H            1 FMN401   0.0000
    46 H15          5.3137    11.7312    12.4554 H            1 FMN401   0.0000
    47 H4'          3.2869    14.0086    10.6440 H            1 FMN401   0.0000
    48 H17          4.9343    15.6149     9.3526 H            1 FMN401   0.0000
    49 H5'1         4.3132    15.1621    12.4980 H            1 FMN401   0.0000
    50 H5'2         3.8829    16.1914    11.3055 H            1 FMN401   0.0000
@<TRIPOS>BOND
     1    1    2       1
     2    1   18       2
     3    2    3       2
     4    2    4       1
     5    4    5       1
     6    5    6       2
     7    5    7       1
     8    7    8       2
     9    7   18       1
    10    8    9       1
    11    9   10      ar
    12    9   16      ar
    13   10   11      ar
    14   11   12       1
    15   11   13      ar
    16   13   14       1
    17   13   15      ar
    18   15   16      ar
    19   16   17       1
    20   17   18       1
    21   17   19       1
    22   19   20       1
    23   20   21       1
    24   20   22       1
    25   22   23       1
    26   22   24       1
    27   24   25       1
    28   24   26       1
    29   26   27       1
    30   27   28       1
    31   28   29      ar
    32   28   30      ar
    33   28   31      ar
    34    4   32       1
    35   10   33       1
    36   12   34       1
    37   12   35       1
    38   12   36       1
    39   14   37       1
    40   14   38       1
    41   14   39       1
    42   15   40       1
    43   19   41       1
    44   19   42       1
    45   20   43       1
    46   21   44       1
    47   22   45       1
    48   23   46       1
    49   24   47       1
    50   25   48       1
    51   26   49       1
    52   26   50       1
@<TRIPOS>SUBSTRUCTURE
     1 FMN401      1 GROUP             4 A     FMN     0 **** FMN A 401
