@<TRIPOS>MOLECULE
1wxj_IPL_1_ligand
   29    30     1     0     0
SMALL
NO_CHARGES


@<TRIPOS>ATOM
     1 N1          -7.3660     5.3200    11.5500 N.pl3        1 IPL1001   0.0000
     2 C2          -6.1280     4.8360    11.9260 C.2          1 IPL1001   0.0000
     3 C3          -5.6990     5.4020    13.0990 C.2          1 IPL1001   0.0000
     4 C4          -6.9060     7.1930    14.6060 C.ar         1 IPL1001   0.0000
     5 C5          -8.0860     7.9650    14.6900 C.ar         1 IPL1001   0.0000
     6 C6          -9.0980     7.8740    13.6950 C.ar         1 IPL1001   0.0000
     7 C7          -8.9670     7.0170    12.5890 C.ar         1 IPL1001   0.0000
     8 C8          -7.7760     6.2340    12.4970 C.ar         1 IPL1001   0.0000
     9 C9          -6.7450     6.3080    13.4870 C.ar         1 IPL1001   0.0000
    10 C1'         -2.1800     6.3090    13.4980 C.3          1 IPL1001   0.0000
    11 C2'         -3.2310     5.3970    12.9200 C.3          1 IPL1001   0.0000
    12 C3'         -4.4200     5.1710    13.8780 C.3          1 IPL1001   0.0000
    13 P           -0.7070     8.4510    12.9830 P.3          1 IPL1001   0.0000
    14 O1P         -0.5120     9.3770    11.8390 O.co2        1 IPL1001   0.0000
    15 O2P          0.5480     7.6870    13.3060 O.co2        1 IPL1001  -1.0000
    16 O3P         -1.2520     9.1150    14.2220 O.co2        1 IPL1001  -1.0000
    17 O4P         -1.8330     7.3500    12.5720 O.3          1 IPL1001   0.0000
    18 H1          -7.8764     5.0535    10.7324 H            1 IPL1001   0.0000
    19 H2          -5.6089     4.1569    11.4070 H            1 IPL1001   0.0000
    20 H3          -6.1990     7.2613    15.3099 H            1 IPL1001   0.0000
    21 H4          -8.2120     8.5867    15.4631 H            1 IPL1001   0.0000
    22 H5          -9.9223     8.4330    13.7845 H            1 IPL1001   0.0000
    23 H6          -9.6815     6.9575    11.8919 H            1 IPL1001   0.0000
    24 H1'1        -1.3624     5.7731    13.7083 H            1 IPL1001   0.0000
    25 H1'2        -2.5324     6.7227    14.3374 H            1 IPL1001   0.0000
    26 H2'1        -2.8105     4.5124    12.7185 H            1 IPL1001   0.0000
    27 H2'2        -3.5755     5.8028    12.0735 H            1 IPL1001   0.0000
    28 H3'1        -4.4004     4.2346    14.2283 H            1 IPL1001   0.0000
    29 H3'2        -4.3672     5.8139    14.6421 H            1 IPL1001   0.0000
@<TRIPOS>BOND
     1    1    2       1
     2    1    8       1
     3    2    3       2
     4    3    9       1
     5    3   12       1
     6    4    5      ar
     7    4    9      ar
     8    5    6      ar
     9    6    7      ar
    10    7    8      ar
    11    8    9      ar
    12   10   11       1
    13   10   17       1
    14   11   12       1
    15   13   14      ar
    16   13   15      ar
    17   13   16      ar
    18   13   17       1
    19    1   18       1
    20    2   19       1
    21    4   20       1
    22    5   21       1
    23    6   22       1
    24    7   23       1
    25   10   24       1
    26   10   25       1
    27   11   26       1
    28   11   27       1
    29   12   28       1
    30   12   29       1
@<TRIPOS>SUBSTRUCTURE
     1 IPL1001     1 GROUP             4 A     IPL     0 **** IPL A1001
