@<TRIPOS>MOLECULE
2nad_NAD_1_ligand
   70    74     1     0     0
SMALL
NO_CHARGES


@<TRIPOS>ATOM
     1 PA          51.1940    35.4700    -7.7570 P.3          1 NAD394   0.0000
     2 O1A         51.4590    36.2390    -9.0540 O.co2        1 NAD394   0.0000
     3 O2A         52.0730    34.4130    -7.2850 O.co2        1 NAD394  -1.0000
     4 O5B         49.7030    34.9660    -7.6840 O.3          1 NAD394   0.0000
     5 C5B         48.6800    35.5050    -8.6020 C.3          1 NAD394   0.0000
     6 C4B         47.8910    34.3400    -9.1130 C.3          1 NAD394   0.0000
     7 O4B         46.6890    34.9800    -9.6870 O.3          1 NAD394   0.0000
     8 C3B         48.5710    33.6500   -10.3730 C.3          1 NAD394   0.0000
     9 O3B         48.3810    32.2250   -10.1140 O.3          1 NAD394   0.0000
    10 C2B         47.7450    34.0830   -11.5840 C.3          1 NAD394   0.0000
    11 O2B         47.5820    33.1600   -12.5530 O.3          1 NAD394   0.0000
    12 C1B         46.4060    34.2920   -10.8340 C.3          1 NAD394   0.0000
    13 N9A         45.5000    35.0380   -11.6520 N.pl3        1 NAD394   0.0000
    14 C8A         45.7560    36.1050   -12.4840 C.2          1 NAD394   0.0000
    15 N7A         44.7170    36.6020   -13.1230 N.2          1 NAD394   0.0000
    16 C5A         43.6830    35.8570   -12.7350 C.ar         1 NAD394   0.0000
    17 C6A         42.2900    35.9040   -13.2160 C.ar         1 NAD394   0.0000
    18 N6A         41.8550    36.7840   -14.1100 N.pl3        1 NAD394   0.0000
    19 N1A         41.5300    34.9590   -12.5860 N.ar         1 NAD394   0.0000
    20 C2A         41.9280    34.0680   -11.6700 C.ar         1 NAD394   0.0000
    21 N3A         43.2700    33.9280   -11.2600 N.ar         1 NAD394   0.0000
    22 C4A         44.1180    34.8770   -11.8140 C.ar         1 NAD394   0.0000
    23 O3          51.1220    36.5740    -6.6740 O.3          1 NAD394   0.0000
    24 PN          50.8520    36.3880    -5.0370 P.3          1 NAD394   0.0000
    25 O1N         50.0030    35.2150    -4.9610 O.co2        1 NAD394   0.0000
    26 O2N         52.1240    36.5100    -4.3130 O.co2        1 NAD394  -1.0000
    27 O5D         49.9650    37.6980    -4.8070 O.3          1 NAD394   0.0000
    28 C5D         48.6050    37.8800    -5.3690 C.3          1 NAD394   0.0000
    29 C4D         48.0930    39.2410    -5.2110 C.3          1 NAD394   0.0000
    30 O4D         47.7760    39.4090    -3.7340 O.3          1 NAD394   0.0000
    31 C3D         49.1330    40.4340    -5.3550 C.3          1 NAD394   0.0000
    32 O3D         49.0190    40.7360    -6.7540 O.3          1 NAD394   0.0000
    33 C2D         48.4730    41.5720    -4.5560 C.3          1 NAD394   0.0000
    34 O2D         47.4100    42.1680    -5.1960 O.3          1 NAD394   0.0000
    35 C1D         47.8650    40.7600    -3.3390 C.3          1 NAD394   0.0000
    36 N1N         48.7590    40.9440    -2.1150 N.ar         1 NAD394   1.0000
    37 C2N         48.1890    41.5770    -0.9970 C.ar         1 NAD394   0.0000
    38 C3N         49.0960    41.7360     0.0150 C.ar         1 NAD394   0.0000
    39 C7N         48.5490    42.3050     1.3970 C.2          1 NAD394   0.0000
    40 O7N         49.6040    42.6290     2.0470 O.2          1 NAD394   0.0000
    41 N7N         47.2230    42.1960     1.7730 N.am         1 NAD394   0.0000
    42 C4N         50.4860    41.3660     0.0740 C.ar         1 NAD394   0.0000
    43 C5N         50.8980    40.7540    -1.1380 C.ar         1 NAD394   0.0000
    44 C6N         50.0430    40.5730    -2.2200 C.ar         1 NAD394   0.0000
    45 H5B1        49.1192    35.9824    -9.3631 H            1 NAD394   0.0000
    46 H5B2        48.0797    36.1381    -8.1133 H            1 NAD394   0.0000
    47 H4B         47.6675    33.6840    -8.3921 H            1 NAD394   0.0000
    48 H3B         49.5364    33.8940   -10.4648 H            1 NAD394   0.0000
    49 H5          47.4033    32.0255   -10.0489 H            1 NAD394   0.0000
    50 H2B         48.0843    34.9447   -11.9614 H            1 NAD394   0.0000
    51 H7          47.1189    32.3583   -12.1752 H            1 NAD394   0.0000
    52 H1B         46.0040    33.4052   -10.6060 H            1 NAD394   0.0000
    53 H8A         46.6761    36.4802   -12.5964 H            1 NAD394   0.0000
    54 H6A1        40.8983    36.7701   -14.4007 H            1 NAD394   0.0000
    55 H6A2        42.4841    37.4606   -14.4926 H            1 NAD394   0.0000
    56 H2A         41.2398    33.4722   -11.2559 H            1 NAD394   0.0000
    57 H5D1        47.9823    37.2504    -4.9044 H            1 NAD394   0.0000
    58 H5D2        48.6326    37.6622    -6.3446 H            1 NAD394   0.0000
    59 H4D         47.2829    39.3935    -5.7771 H            1 NAD394   0.0000
    60 H3D         50.0608    40.2081    -5.0579 H            1 NAD394   0.0000
    61 H17         49.8924    41.0871    -7.0915 H            1 NAD394   0.0000
    62 H2D         49.1451    42.2465    -4.2506 H            1 NAD394   0.0000
    63 H19         47.7195    42.5593    -6.0627 H            1 NAD394   0.0000
    64 H1D         46.9493    41.1060    -3.1349 H            1 NAD394   0.0000
    65 H2N         47.2358    41.8751    -0.9472 H            1 NAD394   0.0000
    66 H7N1        46.9200    42.5673     2.6507 H            1 NAD394   0.0000
    67 H7N2        46.5669    41.7458     1.1673 H            1 NAD394   0.0000
    68 H4N         51.0810    41.5196     0.8629 H            1 NAD394   0.0000
    69 H5N         51.8438    40.4393    -1.2177 H            1 NAD394   0.0000
    70 H6N         50.3833    40.1694    -3.0693 H            1 NAD394   0.0000
@<TRIPOS>BOND
     1    1    2      ar
     2    1    3      ar
     3    1    4       1
     4    1   23       1
     5    4    5       1
     6    5    6       1
     7    6    7       1
     8    6    8       1
     9    7   12       1
    10    8    9       1
    11    8   10       1
    12   10   11       1
    13   10   12       1
    14   12   13       1
    15   13   14       1
    16   13   22       1
    17   14   15       2
    18   15   16       1
    19   16   17      ar
    20   16   22      ar
    21   17   18       1
    22   17   19      ar
    23   19   20      ar
    24   20   21      ar
    25   21   22      ar
    26   23   24       1
    27   24   25      ar
    28   24   26      ar
    29   24   27       1
    30   27   28       1
    31   28   29       1
    32   29   30       1
    33   29   31       1
    34   30   35       1
    35   31   32       1
    36   31   33       1
    37   33   34       1
    38   33   35       1
    39   35   36       1
    40   36   37      ar
    41   36   44      ar
    42   37   38      ar
    43   38   39       1
    44   38   42      ar
    45   39   40       2
    46   39   41      am
    47   42   43      ar
    48   43   44      ar
    49   44   70       1
    50    5   45       1
    51    5   46       1
    52    6   47       1
    53    8   48       1
    54    9   49       1
    55   10   50       1
    56   11   51       1
    57   12   52       1
    58   14   53       1
    59   18   54       1
    60   18   55       1
    61   20   56       1
    62   43   69       1
    63   28   57       1
    64   28   58       1
    65   29   59       1
    66   31   60       1
    67   32   61       1
    68   33   62       1
    69   34   63       1
    70   35   64       1
    71   37   65       1
    72   41   66       1
    73   41   67       1
    74   42   68       1
@<TRIPOS>SUBSTRUCTURE
     1 NAD394      1 GROUP             4 A     NAD     0 **** NAD A 394
