@<TRIPOS>MOLECULE
1rml_NTS_1_ligand
   27    28     1     0     0
SMALL
NO_CHARGES


@<TRIPOS>ATOM
     1 C1          15.8800    -2.6030    -1.2230 C.ar         1 NTS178   0.0000
     2 C2          16.4440    -3.8610    -1.0080 C.ar         1 NTS178   0.0000
     3 C3          15.7740    -5.0110    -1.4210 C.ar         1 NTS178   0.0000
     4 C4          14.5360    -4.9030    -2.0510 C.ar         1 NTS178   0.0000
     5 C5          12.7270    -3.5530    -2.9000 C.ar         1 NTS178   0.0000
     6 C6          12.1470    -2.3060    -3.1230 C.ar         1 NTS178   0.0000
     7 C7          12.8100    -1.1510    -2.7130 C.ar         1 NTS178   0.0000
     8 C8          14.0500    -1.2450    -2.0810 C.ar         1 NTS178   0.0000
     9 C9          14.6380    -2.4920    -1.8540 C.ar         1 NTS178   0.0000
    10 C10         13.9680    -3.6470    -2.2680 C.ar         1 NTS178   0.0000
    11 O11         15.6580     0.0300     0.0940 O.co2        1 NTS178   0.0000
    12 O12         17.6270    -0.3500    -2.0530 O.co2        1 NTS178   0.0000
    13 O13         18.0300    -1.6400     0.5560 O.co2        1 NTS178  -1.0000
    14 O31         17.8300    -6.9160    -2.3380 O.co2        1 NTS178   0.0000
    15 O32         15.2540    -7.9170    -1.3370 O.co2        1 NTS178   0.0000
    16 O33         17.1960    -6.7180     0.5260 O.co2        1 NTS178  -1.0000
    17 O61          9.3110    -1.5890    -2.7600 O.co2        1 NTS178   0.0000
    18 O62         10.0380    -3.8080    -4.5440 O.co2        1 NTS178   0.0000
    19 O63         10.6390    -1.0320    -5.3220 O.co2        1 NTS178  -1.0000
    20 S1          16.8020    -1.1370    -0.6600 S.o2         1 NTS178   0.0000
    21 S3          16.5150    -6.6470    -1.1390 S.o2         1 NTS178   0.0000
    22 S6          10.5290    -2.1850    -3.9440 S.o2         1 NTS178   0.0000
    23 H1          17.3326    -3.9377    -0.5557 H            1 NTS178   0.0000
    24 H2          14.0536    -5.7270    -2.3482 H            1 NTS178   0.0000
    25 H3          12.2529    -4.3831    -3.1936 H            1 NTS178   0.0000
    26 H4          12.3967    -0.2544    -2.8719 H            1 NTS178   0.0000
    27 H5          14.5218    -0.4134    -1.7881 H            1 NTS178   0.0000
@<TRIPOS>BOND
     1    1    2      ar
     2    1    9      ar
     3    1   20       1
     4    2    3      ar
     5    3    4      ar
     6    3   21       1
     7    4   10      ar
     8    5    6      ar
     9    5   10      ar
    10    6    7      ar
    11    6   22       1
    12    7    8      ar
    13    8    9      ar
    14    9   10      ar
    15   11   20      ar
    16   12   20      ar
    17   13   20      ar
    18   14   21      ar
    19   15   21      ar
    20   16   21      ar
    21   17   22      ar
    22   18   22      ar
    23   19   22      ar
    24    2   23       1
    25    4   24       1
    26    5   25       1
    27    7   26       1
    28    8   27       1
@<TRIPOS>SUBSTRUCTURE
     1 NTS178      1 GROUP             4 A     NTS     0 **** NTS A 178
