@<TRIPOS>MOLECULE
4ryv_ZEA_3_ligand
   29    30     1     0     0
SMALL
NO_CHARGES


@<TRIPOS>ATOM
     1 O16          7.9780     6.4130    14.3870 O.3          1 ZEA203   0.0000
     2 C14          6.6190     6.7070    14.0630 C.3          1 ZEA203   0.0000
     3 C13          6.1180     6.2520    12.7180 C.2          1 ZEA203   0.0000
     4 C15          6.3850     7.2060    11.5920 C.3          1 ZEA203   0.0000
     5 C12          5.5120     5.0590    12.6830 C.2          1 ZEA203   0.0000
     6 C11          4.8840     4.3640    11.5250 C.3          1 ZEA203   0.0000
     7 N10          4.5920     2.9530    11.8170 N.pl3        1 ZEA203   0.0000
     8 C6           3.3030     2.4970    12.0800 C.ar         1 ZEA203   0.0000
     9 C5           2.9730     1.1310    11.9710 C.ar         1 ZEA203   0.0000
    10 N9           3.6990     0.0050    11.6800 N.pl3        1 ZEA203   0.0000
    11 C4           1.6450     0.7200    12.1760 C.ar         1 ZEA203   0.0000
    12 N7           1.5550    -0.6140    12.0310 N.2          1 ZEA203   0.0000
    13 C8           2.8350    -1.0530    11.7400 C.2          1 ZEA203   0.0000
    14 N3           0.6680     1.6110    12.4710 N.ar         1 ZEA203   0.0000
    15 C2           1.0080     2.9240    12.5480 C.ar         1 ZEA203   0.0000
    16 N1           2.2820     3.3580    12.3400 N.ar         1 ZEA203   0.0000
    17 H1           8.5630     7.1657    14.0851 H            1 ZEA203   0.0000
    18 H2           6.5078     7.6999    14.1053 H            1 ZEA203   0.0000
    19 H3           6.0441     6.2772    14.7592 H            1 ZEA203   0.0000
    20 H4           6.0213     6.8273    10.7409 H            1 ZEA203   0.0000
    21 H5           5.9408     8.0811    11.7841 H            1 ZEA203   0.0000
    22 H6           7.3709     7.3457    11.5002 H            1 ZEA203   0.0000
    23 H7           5.4760     4.5673    13.5530 H            1 ZEA203   0.0000
    24 H8           5.5082     4.4091    10.7450 H            1 ZEA203   0.0000
    25 H9           4.0291     4.8291    11.2951 H            1 ZEA203   0.0000
    26 H10          5.3466     2.2969    11.8271 H            1 ZEA203   0.0000
    27 H11          3.0915    -2.0085    11.5943 H            1 ZEA203   0.0000
    28 H12          0.2986     3.5947    12.7648 H            1 ZEA203   0.0000
    29 H13          4.6748    -0.0349    11.4648 H            1 ZEA203   0.0000
@<TRIPOS>BOND
     1    1    2       1
     2    2    3       1
     3    3    4       1
     4    3    5       2
     5    5    6       1
     6    6    7       1
     7    7    8       1
     8    8    9      ar
     9    8   16      ar
    10    9   10       1
    11    9   11      ar
    12   10   13       1
    13   11   12       1
    14   11   14      ar
    15   12   13       2
    16   14   15      ar
    17   15   16      ar
    18    1   17       1
    19    2   18       1
    20    2   19       1
    21    4   20       1
    22    4   21       1
    23    4   22       1
    24    5   23       1
    25    6   24       1
    26    6   25       1
    27    7   26       1
    28   15   28       1
    29   13   27       1
    30   10   29       1
@<TRIPOS>SUBSTRUCTURE
     1 ZEA203      1 GROUP             4 A     ZEA     0 **** ZEA A 203
