@<TRIPOS>MOLECULE
3ia4_MTX_4_ligand
   54    56     1     0     0
SMALL
NO_CHARGES


@<TRIPOS>ATOM
     1 N1          84.7460     1.4840   -16.9630 N.ar         1 MTX164   1.0000
     2 C2          84.9140     0.3900   -16.1270 C.ar         1 MTX164   0.0000
     3 NA2         84.2730     0.4370   -14.9710 N.pl3        1 MTX164   0.0000
     4 N3          85.6760    -0.6600   -16.4970 N.ar         1 MTX164   0.0000
     5 C4          86.3480    -0.6850   -17.6580 C.ar         1 MTX164   0.0000
     6 NA4         87.1160    -1.6920   -17.9970 N.pl3        1 MTX164   0.0000
     7 C4A         86.2640     0.4200   -18.4910 C.ar         1 MTX164   0.0000
     8 N5          86.9910     0.3880   -19.6520 N.ar         1 MTX164   0.0000
     9 C6          86.8710     1.4240   -20.5250 C.ar         1 MTX164   0.0000
    10 C7          86.0340     2.4920   -20.1860 C.ar         1 MTX164   0.0000
    11 N8          85.3260     2.5300   -19.0040 N.ar         1 MTX164   0.0000
    12 C8A         85.4460     1.4660   -18.1440 C.ar         1 MTX164   0.0000
    13 C9          87.6230     1.3590   -21.8230 C.3          1 MTX164   0.0000
    14 N10         87.7700     2.6950   -22.4370 N.pl3        1 MTX164   0.0000
    15 CM          87.1990     2.7300   -23.8170 C.3          1 MTX164   0.0000
    16 C11         89.8200     5.8890   -20.6700 C.ar         1 MTX164   0.0000
    17 C12         89.1800     6.0410   -21.8920 C.ar         1 MTX164   0.0000
    18 C13         88.4930     5.0120   -22.4970 C.ar         1 MTX164   0.0000
    19 C14         88.4550     3.7750   -21.8570 C.ar         1 MTX164   0.0000
    20 C15         89.1060     3.6610   -20.6180 C.ar         1 MTX164   0.0000
    21 C16         89.8420     4.6680   -20.0510 C.ar         1 MTX164   0.0000
    22 C           90.5240     6.9880   -19.9860 C.2          1 MTX164   0.0000
    23 O           90.9890     8.0710   -20.7130 O.2          1 MTX164   0.0000
    24 N           90.6670     6.9310   -18.6610 N.am         1 MTX164   0.0000
    25 CA          91.5400     7.8190   -17.9570 C.3          1 MTX164   0.0000
    26 CT          92.3980     7.0120   -17.0370 C.2          1 MTX164   0.0000
    27 O1          91.9970     5.9020   -16.6360 O.co2        1 MTX164   0.0000
    28 O2          93.4880     7.5000   -16.6900 O.co2        1 MTX164  -1.0000
    29 CB          90.7100     8.7550   -17.1100 C.3          1 MTX164   0.0000
    30 CG          89.7350     9.4160   -18.0820 C.3          1 MTX164   0.0000
    31 CD          90.3610    10.6260   -18.7450 C.2          1 MTX164   0.0000
    32 OE1         89.6930    11.2450   -19.6430 O.co2        1 MTX164   0.0000
    33 OE2         91.5390    10.9760   -18.4210 O.co2        1 MTX164  -1.0000
    34 HA21        84.3532    -0.3210   -14.3236 H            1 MTX164   0.0000
    35 HA22        83.7082     1.2305   -14.7444 H            1 MTX164   0.0000
    36 HA41        87.6027    -1.6777   -18.8705 H            1 MTX164   0.0000
    37 HA42        87.2151    -2.4744   -17.3821 H            1 MTX164   0.0000
    38 H5          85.9460     3.2563   -20.8248 H            1 MTX164   0.0000
    39 H6          87.1267     0.7644   -22.4556 H            1 MTX164   0.0000
    40 H7          88.5321     0.9791   -21.6522 H            1 MTX164   0.0000
    41 HM1         87.3146     3.6455   -24.2025 H            1 MTX164   0.0000
    42 HM2         87.6746     2.0639   -24.3915 H            1 MTX164   0.0000
    43 HM3         86.2255     2.5041   -23.7808 H            1 MTX164   0.0000
    44 H11         89.2190     6.9293   -22.3496 H            1 MTX164   0.0000
    45 H12         88.0328     5.1493   -23.3741 H            1 MTX164   0.0000
    46 H13         89.0280     2.7964   -20.1217 H            1 MTX164   0.0000
    47 H14         90.3742     4.5171   -19.2180 H            1 MTX164   0.0000
    48 H15         90.1494     6.2483   -18.1453 H            1 MTX164   0.0000
    49 HA          92.1054     8.3364   -18.5993 H            1 MTX164   0.0000
    50 HB1         91.2912     9.4424   -16.6746 H            1 MTX164   0.0000
    51 HB2         90.2134     8.2451   -16.4076 H            1 MTX164   0.0000
    52 HG1         88.9191     9.7040   -17.5807 H            1 MTX164   0.0000
    53 HG2         89.4773     8.7546   -18.7863 H            1 MTX164   0.0000
    54 H21         84.1464     2.2460   -16.7183 H            1 MTX164   0.0000
@<TRIPOS>BOND
     1    1    2      ar
     2    1   12      ar
     3    2    3       1
     4    2    4      ar
     5    4    5      ar
     6    5    6       1
     7    5    7      ar
     8    7    8      ar
     9    7   12      ar
    10    8    9      ar
    11    9   10      ar
    12    9   13       1
    13   10   11      ar
    14   11   12      ar
    15   13   14       1
    16   14   15       1
    17   14   19       1
    18   16   17      ar
    19   16   21      ar
    20   16   22       1
    21   17   18      ar
    22   18   19      ar
    23   19   20      ar
    24   20   21      ar
    25   22   23       2
    26   22   24      am
    27   24   25       1
    28   25   26       1
    29   25   29       1
    30   26   27      ar
    31   26   28      ar
    32   29   30       1
    33   30   31       1
    34   31   32      ar
    35   31   33      ar
    36    3   34       1
    37    3   35       1
    38    6   36       1
    39    6   37       1
    40   10   38       1
    41   13   39       1
    42   13   40       1
    43   15   41       1
    44   15   42       1
    45   15   43       1
    46   17   44       1
    47   18   45       1
    48   20   46       1
    49   21   47       1
    50   24   48       1
    51   25   49       1
    52   30   53       1
    53   29   50       1
    54   29   51       1
    55   30   52       1
    56    1   54       1
@<TRIPOS>SUBSTRUCTURE
     1 MTX164      1 GROUP             4 D     MTX     0 **** MTX D 164
