@<TRIPOS>MOLECULE
4xbf_FAD_1_ligand
   84    89     1     0     0
SMALL
NO_CHARGES


@<TRIPOS>ATOM
     1 PA         188.0950    67.4610    28.6560 P.3          1 FAD901   0.0000
     2 O1A        187.2230    67.9320    29.8290 O.co2        1 FAD901   0.0000
     3 O2A        189.3750    66.8580    29.1710 O.co2        1 FAD901  -1.0000
     4 O5B        188.4620    68.7390    27.6500 O.3          1 FAD901   0.0000
     5 C5B        187.5050    69.8060    27.5460 C.3          1 FAD901   0.0000
     6 C4B        188.2740    71.1660    27.6900 C.3          1 FAD901   0.0000
     7 O4B        187.4500    72.1390    27.4200 O.3          1 FAD901   0.0000
     8 C3B        188.7100    71.3460    29.1550 C.3          1 FAD901   0.0000
     9 O3B        190.0110    71.7130    29.2360 O.3          1 FAD901   0.0000
    10 C2B        187.8020    72.4830    29.6800 C.3          1 FAD901   0.0000
    11 O2B        188.5280    73.2460    30.7680 O.3          1 FAD901   0.0000
    12 C1B        187.6230    73.2110    28.6220 C.3          1 FAD901   0.0000
    13 N9A        186.4380    74.0390    28.6860 N.pl3        1 FAD901   0.0000
    14 C8A        185.2950    73.7660    29.3140 C.2          1 FAD901   0.0000
    15 N7A        184.4640    74.7900    29.1190 N.2          1 FAD901   0.0000
    16 C5A        185.1110    75.7070    28.3510 C.ar         1 FAD901   0.0000
    17 C6A        184.7190    76.9410    27.8520 C.ar         1 FAD901   0.0000
    18 N6A        183.4880    77.7090    27.9660 N.pl3        1 FAD901   0.0000
    19 N1A        185.5520    77.6420    27.1200 N.ar         1 FAD901   0.0000
    20 C2A        186.7960    77.1640    26.8510 C.ar         1 FAD901   0.0000
    21 N3A        187.1760    75.9680    27.3350 N.ar         1 FAD901   0.0000
    22 C4A        186.3160    75.2470    28.0860 C.ar         1 FAD901   0.0000
    23 N1         189.3800    57.6970    31.7270 N.2          1 FAD901   0.0000
    24 C2         190.1490    56.4350    31.6030 C.2          1 FAD901   0.0000
    25 O2         190.3110    55.9410    30.5290 O.2          1 FAD901   0.0000
    26 N3         190.7120    55.7860    32.8310 N.pl3        1 FAD901   0.0000
    27 C4         190.5020    56.4040    34.1280 C.2          1 FAD901   0.0000
    28 O4         190.9610    55.8870    35.1670 O.2          1 FAD901   0.0000
    29 C4X        189.7140    57.6840    34.2310 C.2          1 FAD901   0.0000
    30 N5         189.5030    58.3020    35.5640 N.2          1 FAD901   0.0000
    31 C5X        188.7340    59.5820    35.6790 C.ar         1 FAD901   0.0000
    32 C6         188.5450    60.1580    36.9290 C.ar         1 FAD901   0.0000
    33 C7         187.8150    61.3630    37.0450 C.ar         1 FAD901   0.0000
    34 C7M        187.7080    61.8450    38.4870 C.3          1 FAD901   0.0000
    35 C8         187.2890    61.9730    35.9060 C.ar         1 FAD901   0.0000
    36 C8M        186.4910    63.2700    35.8820 C.3          1 FAD901   0.0000
    37 C9         187.4810    61.3910    34.6320 C.ar         1 FAD901   0.0000
    38 C9A        188.1960    60.1990    34.5110 C.ar         1 FAD901   0.0000
    39 N10        188.4170    59.5640    33.1420 N.pl3        1 FAD901   0.0000
    40 C10        189.1730    58.3110    33.0320 C.2          1 FAD901   0.0000
    41 C1'        187.8480    60.1790    31.8970 C.3          1 FAD901   0.0000
    42 C2'        188.8790    61.0480    31.1390 C.3          1 FAD901   0.0000
    43 O2'        189.5810    61.8200    32.0300 O.3          1 FAD901   0.0000
    44 C3'        188.0910    61.9380    30.2120 C.3          1 FAD901   0.0000
    45 O3'        187.1130    61.1700    29.5270 O.3          1 FAD901   0.0000
    46 C4'        188.9770    62.5820    29.1940 C.3          1 FAD901   0.0000
    47 O4'        190.1220    63.1740    29.8180 O.3          1 FAD901   0.0000
    48 C5'        188.1260    63.6520    28.5330 C.3          1 FAD901   0.0000
    49 O5'        188.7780    64.1960    27.4100 O.3          1 FAD901   0.0000
    50 P          187.9020    65.3790    26.6360 P.3          1 FAD901   0.0000
    51 O1P        188.8500    66.1690    25.7110 O.co2        1 FAD901   0.0000
    52 O2P        186.7800    64.7610    25.8580 O.co2        1 FAD901  -1.0000
    53 O3P        187.2510    66.3190    27.7910 O.3          1 FAD901   0.0000
    54 H5B1       186.8242    69.7228    28.2737 H            1 FAD901   0.0000
    55 H5B2       187.0490    69.7669    26.6569 H            1 FAD901   0.0000
    56 H4B        189.0653    71.1920    27.0791 H            1 FAD901   0.0000
    57 H3B        188.5514    70.5051    29.6725 H            1 FAD901   0.0000
    58 H5         190.1435    72.5794    28.7546 H            1 FAD901   0.0000
    59 H2B        186.9328    72.1205    30.0162 H            1 FAD901   0.0000
    60 H7         189.3702    73.6364    30.3962 H            1 FAD901   0.0000
    61 H1B        188.4289    73.7801    28.4587 H            1 FAD901   0.0000
    62 H8A        185.0956    72.9387    29.8391 H            1 FAD901   0.0000
    63 H6A1       183.4108    78.5994    27.5175 H            1 FAD901   0.0000
    64 H6A2       182.7193    77.3463    28.4929 H            1 FAD901   0.0000
    65 H2A        187.4284    77.7016    26.2933 H            1 FAD901   0.0000
    66 H13        191.2288    54.9331    32.7576 H            1 FAD901   0.0000
    67 H14        188.9244    59.7213    37.7447 H            1 FAD901   0.0000
    68 H7M1       187.1849    62.6968    38.5158 H            1 FAD901   0.0000
    69 H7M2       187.2444    61.1504    39.0371 H            1 FAD901   0.0000
    70 H7M3       188.6245    62.0040    38.8542 H            1 FAD901   0.0000
    71 H8M1       186.2332    63.4854    34.9401 H            1 FAD901   0.0000
    72 H8M2       185.6662    63.1642    36.4375 H            1 FAD901   0.0000
    73 H8M3       187.0496    64.0120    36.2526 H            1 FAD901   0.0000
    74 H21        187.1046    61.8334    33.8180 H            1 FAD901   0.0000
    75 H1'1       187.0695    60.7533    32.1503 H            1 FAD901   0.0000
    76 H1'2       187.5386    59.4466    31.2904 H            1 FAD901   0.0000
    77 H2'        189.5033    60.4681    30.6155 H            1 FAD901   0.0000
    78 H25        189.8586    62.6721    31.5863 H            1 FAD901   0.0000
    79 H3'        187.6349    62.6488    30.7475 H            1 FAD901   0.0000
    80 H27        186.3223    61.7459    29.3193 H            1 FAD901   0.0000
    81 H4'        189.2669    61.9069    28.5156 H            1 FAD901   0.0000
    82 H29        190.4215    63.9644    29.2836 H            1 FAD901   0.0000
    83 H5'1       187.9484    64.3820    29.1930 H            1 FAD901   0.0000
    84 H5'2       187.2591    63.2468    28.2428 H            1 FAD901   0.0000
@<TRIPOS>BOND
     1    1    2      ar
     2    1    3      ar
     3    1    4       1
     4    1   53       1
     5    4    5       1
     6    5    6       1
     7    6    7       1
     8    6    8       1
     9    7   12       1
    10    8    9       1
    11    8   10       1
    12   10   11       1
    13   10   12       1
    14   12   13       1
    15   13   14       1
    16   13   22       1
    17   14   15       2
    18   15   16       1
    19   16   17      ar
    20   16   22      ar
    21   17   18       1
    22   17   19      ar
    23   19   20      ar
    24   20   21      ar
    25   21   22      ar
    26   23   24       1
    27   23   40       2
    28   24   25       2
    29   24   26       1
    30   26   27       1
    31   27   28       2
    32   27   29       1
    33   29   30       2
    34   29   40       1
    35   30   31       1
    36   31   32      ar
    37   31   38      ar
    38   32   33      ar
    39   33   34       1
    40   33   35      ar
    41   35   36       1
    42   35   37      ar
    43   37   38      ar
    44   38   39       1
    45   39   40       1
    46   39   41       1
    47   41   42       1
    48   42   43       1
    49   42   44       1
    50   44   45       1
    51   44   46       1
    52   46   47       1
    53   46   48       1
    54   48   49       1
    55   49   50       1
    56   50   51      ar
    57   50   52      ar
    58   50   53       1
    59   48   84       1
    60    5   54       1
    61    5   55       1
    62    6   56       1
    63    8   57       1
    64    9   58       1
    65   10   59       1
    66   11   60       1
    67   12   61       1
    68   14   62       1
    69   18   63       1
    70   18   64       1
    71   20   65       1
    72   26   66       1
    73   32   67       1
    74   34   68       1
    75   34   69       1
    76   34   70       1
    77   36   71       1
    78   36   72       1
    79   36   73       1
    80   37   74       1
    81   41   75       1
    82   41   76       1
    83   42   77       1
    84   43   78       1
    85   44   79       1
    86   45   80       1
    87   46   81       1
    88   47   82       1
    89   48   83       1
@<TRIPOS>SUBSTRUCTURE
     1 FAD901      1 GROUP             4 A     FAD     0 **** FAD A 901
