@<TRIPOS>MOLECULE
2bju_IH4_2_ligand
   89    93     1     0     0
SMALL
NO_CHARGES


@<TRIPOS>ATOM
     1 O27         -0.5140    65.1090    20.0440 O.2          1 IH41331   0.0000
     2 C26         -1.3800    64.5680    19.3500 C.2          1 IH41331   0.0000
     3 O28         -1.4240    63.2120    19.2460 O.3          1 IH41331   0.0000
     4 C29         -2.2070    62.6000    20.2780 C.3          1 IH41331   0.0000
     5 C25         -2.4130    65.4240    18.6320 C.3          1 IH41331   0.0000
     6 C24         -2.1980    65.3950    17.1230 C.ar         1 IH41331   0.0000
     7 C30         -1.0570    65.9480    16.5510 C.ar         1 IH41331   0.0000
     8 C31         -0.8920    65.9050    15.1710 C.ar         1 IH41331   0.0000
     9 C23         -3.1670    64.8110    16.3260 C.ar         1 IH41331   0.0000
    10 C22         -2.9960    64.7610    14.9500 C.ar         1 IH41331   0.0000
    11 C21         -1.8580    65.3040    14.3690 C.ar         1 IH41331   0.0000
    12 C20         -1.7170    65.2850    12.9210 C.ar         1 IH41331   0.0000
    13 C32         -2.8750    65.2490    12.1620 C.ar         1 IH41331   0.0000
    14 C33         -2.8060    65.2470    10.7790 C.ar         1 IH41331   0.0000
    15 C19         -0.4820    65.3580    12.2850 C.ar         1 IH41331   0.0000
    16 C18         -0.4040    65.3630    10.8930 C.ar         1 IH41331   0.0000
    17 C17         -1.5820    65.3140    10.1410 C.ar         1 IH41331   0.0000
    18 C16         -1.5840    65.3130     8.6120 C.3          1 IH41331   0.0000
    19 N3          -0.7640    66.4220     8.1150 N.am         1 IH41331   0.0000
    20 C2           0.6140    66.1540     7.7320 C.2          1 IH41331   0.0000
    21 C34          1.4500    67.2580     7.1080 C.ar         1 IH41331   0.0000
    22 C35          2.6520    67.5970     7.7120 C.ar         1 IH41331   0.0000
    23 C36          3.5630    68.3950     7.0450 C.ar         1 IH41331   0.0000
    24 C37          3.2520    68.8670     5.7710 C.ar         1 IH41331   0.0000
    25 C43          2.0370    68.5340     5.1740 C.ar         1 IH41331   0.0000
    26 C44          1.1320    67.7250     5.8460 C.ar         1 IH41331   0.0000
    27 C38          4.2260    69.7520     5.0020 C.3          1 IH41331   0.0000
    28 C39          5.4630    70.1520     5.8090 C.3          1 IH41331   0.0000
    29 C40          5.2360    71.4150     6.6310 C.3          1 IH41331   0.0000
    30 C41          5.3600    71.1090     8.1190 C.3          1 IH41331   0.0000
    31 C42          6.7940    71.2190     8.5770 C.3          1 IH41331   0.0000
    32 O1           1.1080    65.0380     7.9130 O.2          1 IH41331   0.0000
    33 C4          -1.3060    67.7680     7.8720 C.3          1 IH41331   0.0000
    34 C5          -2.3770    67.7620     6.7820 C.3          1 IH41331   0.0000
    35 C6          -2.7610    69.2200     6.5090 C.3          1 IH41331   0.0000
    36 N7          -3.2440    69.8600     7.7560 N.4          1 IH41331   1.0000
    37 C14         -2.2990    69.7630     8.8910 C.3          1 IH41331   0.0000
    38 C15         -1.8650    68.3310     9.1700 C.3          1 IH41331   0.0000
    39 C8          -3.4220    71.3140     7.5880 C.3          1 IH41331   0.0000
    40 C9          -4.3330    71.7200     6.4450 C.2          1 IH41331   0.0000
    41 N10         -5.6300    71.2900     6.3890 N.2          1 IH41331   0.0000
    42 C11         -6.1770    71.8370     5.2480 C.2          1 IH41331   0.0000
    43 C12         -5.2080    72.5720     4.6540 C.2          1 IH41331   0.0000
    44 N13         -4.0480    72.5160     5.3790 N.pl3        1 IH41331   0.0000
    45 H1          -2.2051    61.6078    20.1537 H            1 IH41331   0.0000
    46 H2          -1.8162    62.8249    21.1706 H            1 IH41331   0.0000
    47 H3          -3.1461    62.9402    20.2300 H            1 IH41331   0.0000
    48 H4          -2.3363    66.3674    18.9546 H            1 IH41331   0.0000
    49 H5          -3.3269    65.0744    18.8383 H            1 IH41331   0.0000
    50 H6          -0.3601    66.3736    17.1283 H            1 IH41331   0.0000
    51 H7          -0.0771    66.3070    14.7535 H            1 IH41331   0.0000
    52 H8          -3.9905    64.4250    16.7418 H            1 IH41331   0.0000
    53 H9          -3.6938    64.3330    14.3756 H            1 IH41331   0.0000
    54 H10         -3.7660    65.2243    12.6153 H            1 IH41331   0.0000
    55 H11         -3.6462    65.1968    10.2391 H            1 IH41331   0.0000
    56 H12          0.3552    65.4072    12.8297 H            1 IH41331   0.0000
    57 H13          0.4852    65.4012    10.4370 H            1 IH41331   0.0000
    58 H14         -2.5217    65.4188     8.2809 H            1 IH41331   0.0000
    59 H15         -1.2089    64.4476     8.2799 H            1 IH41331   0.0000
    60 H16          2.8599    67.2636     8.6316 H            1 IH41331   0.0000
    61 H17          4.4358    68.6310     7.4721 H            1 IH41331   0.0000
    62 H18          1.8177    68.8783     4.2611 H            1 IH41331   0.0000
    63 H19          0.2593    67.4823     5.4223 H            1 IH41331   0.0000
    64 H20          3.7458    70.5849     4.7267 H            1 IH41331   0.0000
    65 H21          4.5273    69.2563     4.1875 H            1 IH41331   0.0000
    66 H22          6.2211    70.3121     5.1768 H            1 IH41331   0.0000
    67 H23          5.6982    69.4033     6.4287 H            1 IH41331   0.0000
    68 H24          4.3205    71.7707     6.4428 H            1 IH41331   0.0000
    69 H25          5.9186    72.1004     6.3774 H            1 IH41331   0.0000
    70 H26          5.0326    70.1797     8.2900 H            1 IH41331   0.0000
    71 H27          4.8015    71.7592     8.6341 H            1 IH41331   0.0000
    72 H28          6.8484    71.0141     9.5543 H            1 IH41331   0.0000
    73 H29          7.3573    70.5681     8.0680 H            1 IH41331   0.0000
    74 H30          7.1263    72.1477     8.4121 H            1 IH41331   0.0000
    75 H31         -0.5566    68.3580     7.5716 H            1 IH41331   0.0000
    76 H32         -3.1779    67.2500     7.0925 H            1 IH41331   0.0000
    77 H33         -2.0152    67.3422     5.9496 H            1 IH41331   0.0000
    78 H34         -3.4856    69.2481     5.8204 H            1 IH41331   0.0000
    79 H35         -1.9607    69.7154     6.1712 H            1 IH41331   0.0000
    80 H36         -2.7426    70.1285     9.7093 H            1 IH41331   0.0000
    81 H37         -1.4877    70.3082     8.6799 H            1 IH41331   0.0000
    82 H38         -1.1608    68.3188     9.8799 H            1 IH41331   0.0000
    83 H39         -2.6494    67.7876     9.4692 H            1 IH41331   0.0000
    84 H40         -2.5225    71.7202     7.4272 H            1 IH41331   0.0000
    85 H41         -3.8061    71.6796     8.4358 H            1 IH41331   0.0000
    86 H42         -7.1138    71.7139     4.9206 H            1 IH41331   0.0000
    87 H43         -5.3234    73.0849     3.8034 H            1 IH41331   0.0000
    88 H44         -4.1173    69.4500     8.0192 H            1 IH41331   0.0000
    89 H45         -3.1786    72.9637     5.1701 H            1 IH41331   0.0000
@<TRIPOS>BOND
     1    1    2       2
     2    2    3       1
     3    2    5       1
     4    3    4       1
     5    5    6       1
     6    6    7      ar
     7    6    9      ar
     8    7    8      ar
     9    8   11      ar
    10    9   10      ar
    11   10   11      ar
    12   11   12       1
    13   12   13      ar
    14   12   15      ar
    15   13   14      ar
    16   14   17      ar
    17   15   16      ar
    18   16   17      ar
    19   17   18       1
    20   18   19       1
    21   19   20      am
    22   19   33       1
    23   20   21       1
    24   20   32       2
    25   21   22      ar
    26   21   26      ar
    27   22   23      ar
    28   23   24      ar
    29   24   25      ar
    30   24   27       1
    31   25   26      ar
    32   27   28       1
    33   28   29       1
    34   29   30       1
    35   30   31       1
    36   33   34       1
    37   33   38       1
    38   34   35       1
    39   35   36       1
    40   36   37       1
    41   36   39       1
    42   37   38       1
    43   39   40       1
    44   40   41       2
    45   40   44       1
    46   41   42       1
    47   42   43       2
    48   43   44       1
    49    4   45       1
    50    4   46       1
    51    4   47       1
    52    5   48       1
    53    5   49       1
    54    7   50       1
    55    8   51       1
    56    9   52       1
    57   10   53       1
    58   13   54       1
    59   14   55       1
    60   15   56       1
    61   16   57       1
    62   18   58       1
    63   18   59       1
    64   22   60       1
    65   23   61       1
    66   25   62       1
    67   26   63       1
    68   27   64       1
    69   27   65       1
    70   28   66       1
    71   28   67       1
    72   29   68       1
    73   29   69       1
    74   30   70       1
    75   30   71       1
    76   31   72       1
    77   31   73       1
    78   31   74       1
    79   33   75       1
    80   34   76       1
    81   34   77       1
    82   35   78       1
    83   35   79       1
    84   37   80       1
    85   37   81       1
    86   38   82       1
    87   38   83       1
    88   39   84       1
    89   39   85       1
    90   36   88       1
    91   42   86       1
    92   43   87       1
    93   44   89       1
@<TRIPOS>SUBSTRUCTURE
     1 IH41331     1 GROUP             4 A     IH4     0 **** IH4 A1331
