@<TRIPOS>MOLECULE
5fsi_8DG_1_ligand
   45    47     1     0     0
SMALL
NO_CHARGES


@<TRIPOS>ATOM
     1 PG           3.6470    21.9860    -0.8370 P.3          1 8DG1157   0.0000
     2 O1G          4.5330    21.3370    -1.8390 O.co2        1 8DG1157   0.0000
     3 O2G          2.7060    20.9790    -0.1300 O.co2        1 8DG1157  -1.0000
     4 O3G          2.8200    23.1380    -1.4090 O.co2        1 8DG1157  -1.0000
     5 O3B          4.5470    22.6420     0.3030 O.3          1 8DG1157   0.0000
     6 PB           4.9530    22.1710     1.7690 P.3          1 8DG1157   0.0000
     7 O1B          4.1750    22.9120     2.7850 O.co2        1 8DG1157   0.0000
     8 O2B          4.7650    20.6640     1.8990 O.co2        1 8DG1157  -1.0000
     9 O3A          6.4860    22.5480     2.0030 O.3          1 8DG1157   0.0000
    10 PA           7.8460    21.9570     1.4240 P.3          1 8DG1157   0.0000
    11 O1A          7.7950    20.4880     1.3510 O.co2        1 8DG1157   0.0000
    12 O2A          8.1410    22.6490     0.0930 O.co2        1 8DG1157  -1.0000
    13 O5'          8.8480    22.5470     2.4670 O.3          1 8DG1157   0.0000
    14 C5'         10.2520    22.2200     2.4230 C.3          1 8DG1157   0.0000
    15 C4'         10.5920    21.3930     3.6380 C.3          1 8DG1157   0.0000
    16 O4'         11.9580    20.9210     3.5250 O.3          1 8DG1157   0.0000
    17 C3'         10.5100    22.1180     4.9850 C.3          1 8DG1157   0.0000
    18 O3'         10.2800    21.1310     5.9910 O.3          1 8DG1157   0.0000
    19 C2'         11.9330    22.6360     5.1520 C.3          1 8DG1157   0.0000
    20 C1'         12.7540    21.4960     4.5570 C.3          1 8DG1157   0.0000
    21 N9          14.0550    21.8610     3.9920 N.pl3        1 8DG1157   0.0000
    22 C8          14.3010    22.7480     2.9260 C.2          1 8DG1157   0.0000
    23 N7          15.6620    22.7630     2.7060 N.pl3        1 8DG1157   0.0000
    24 C5          16.2190    21.8560     3.5700 C.ar         1 8DG1157   0.0000
    25 C6          17.5770    21.5430     3.8110 C.ar         1 8DG1157   0.0000
    26 O6          18.5390    21.9460     3.1740 O.3          1 8DG1157   0.0000
    27 N1          17.7410    20.6180     4.8210 N.ar         1 8DG1157   1.0000
    28 C2          16.7140    20.0380     5.5170 C.ar         1 8DG1157   0.0000
    29 N2          17.0410    19.1550     6.4510 N.pl3        1 8DG1157   0.0000
    30 N3          15.4390    20.3940     5.3580 N.ar         1 8DG1157   0.0000
    31 C4          15.2710    21.3260     4.3980 C.ar         1 8DG1157   0.0000
    32 O8          13.4600    23.4010     2.3230 O.2          1 8DG1157   0.0000
    33 H5'1        10.7939    23.0605     2.4252 H            1 8DG1157   0.0000
    34 H5'2        10.4504    21.6976     1.5937 H            1 8DG1157   0.0000
    35 H4'          9.9824    20.6008     3.6649 H            1 8DG1157   0.0000
    36 H3'          9.8267    22.8481     4.9929 H            1 8DG1157   0.0000
    37 H5           9.7567    21.5353     6.7412 H            1 8DG1157   0.0000
    38 H2'1        12.1567    22.7809     6.1158 H            1 8DG1157   0.0000
    39 H2'2        12.0721    23.4872     4.6459 H            1 8DG1157   0.0000
    40 H1'         12.8991    20.8064     5.2665 H            1 8DG1157   0.0000
    41 H9          16.1506    23.3287     2.0417 H            1 8DG1157   0.0000
    42 H10         18.6746    20.3525     5.0617 H            1 8DG1157   0.0000
    43 H11         16.3259    18.7048     6.9858 H            1 8DG1157   0.0000
    44 H12         18.0027    18.9394     6.6205 H            1 8DG1157   0.0000
    45 H13         19.4629    21.6618     3.4302 H            1 8DG1157   0.0000
@<TRIPOS>BOND
     1    1    2      ar
     2    1    3      ar
     3    1    4      ar
     4    1    5       1
     5    5    6       1
     6    6    7      ar
     7    6    8      ar
     8    6    9       1
     9    9   10       1
    10   10   11      ar
    11   10   12      ar
    12   10   13       1
    13   13   14       1
    14   14   15       1
    15   15   16       1
    16   15   17       1
    17   16   20       1
    18   17   18       1
    19   17   19       1
    20   19   20       1
    21   20   21       1
    22   21   22       1
    23   21   31       1
    24   22   23       1
    25   22   32       2
    26   23   24       1
    27   24   25      ar
    28   24   31      ar
    29   25   26       1
    30   25   27      ar
    31   27   28      ar
    32   28   29       1
    33   28   30      ar
    34   30   31      ar
    35   29   44       1
    36   29   43       1
    37   27   42       1
    38   23   41       1
    39   14   33       1
    40   14   34       1
    41   15   35       1
    42   17   36       1
    43   18   37       1
    44   19   38       1
    45   19   39       1
    46   20   40       1
    47   26   45       1
@<TRIPOS>SUBSTRUCTURE
     1 8DG1157     1 GROUP             4 A     8DG     0 **** 8DG A1157
