@<TRIPOS>MOLECULE
./coach420/3gqk/ligand.pdb
 31 33 0 0 0
SMALL
GASTEIGER

@<TRIPOS>ATOM
      1  PG       -18.3770    8.2930    8.8690 P.3     1  ATP1        0.5373
      2  O1G      -17.3720    8.1050    9.9820 O.3     1  ATP1       -0.1143
      3  O2G      -18.8800    9.7180    8.7380 O.3     1  ATP1       -0.1143
      4  O3G      -18.0740    7.5930    7.5740 O.2     1  ATP1       -0.2221
      5  PB       -20.6120    7.8770   10.5940 P.3     1  ATP1        0.2277
      6  O1B      -19.9050    9.0020   11.3470 O.3     1  ATP1       -0.4368
      7  O2B      -20.9830    6.6000   11.3300 O.2     1  ATP1       -0.5168
      8  O3B      -19.6930    7.4600    9.3240 O.3     1  ATP1       -0.2258
      9  PA       -22.1980    9.2000    8.5920 P.3     1  ATP1        0.2189
     10  O1A      -21.4950    8.3460    7.5670 O.2     1  ATP1       -0.5170
     11  O2A      -21.7570   10.6280    8.8430 O.3     1  ATP1       -0.4371
     12  O3A      -22.0340    8.3980    9.9870 O.3     1  ATP1       -0.2700
     13  O5'      -23.7690    9.1360    8.2520 O.3     1  ATP1       -0.3112
     14  C5'      -24.2340    9.2850    6.9090 C.3     1  ATP1        0.1813
     15  C4'      -23.9800    8.0090    6.1040 C.3     1  ATP1        0.1801
     16  O4'      -23.6610    6.9120    6.9670 O.3     1  ATP1       -0.3306
     17  C3'      -25.1960    7.5880    5.3000 C.3     1  ATP1        0.2161
     18  O3'      -24.7310    7.1400    4.0210 O.3     1  ATP1       -0.2175
     19  C2'      -25.8180    6.4340    6.0660 C.3     1  ATP1        0.2337
     20  O2'      -26.2200    5.3840    5.1900 O.3     1  ATP1       -0.2155
     21  C1'      -24.6980    5.9110    6.9530 C.3     1  ATP1        0.2409
     22  N9       -25.1740    5.5750    8.3300 N.ar    1  ATP1       -0.2693
     23  C8       -25.0620    6.3650    9.4160 C.ar    1  ATP1        0.1816
     24  N7       -25.5760    5.7680   10.5230 N.ar    1  ATP1       -0.2193
     25  C5       -26.0330    4.5590   10.1380 C.ar    1  ATP1        0.1518
     26  C6       -26.6940    3.4060   10.8100 C.ar    1  ATP1        0.1919
     27  N6       -26.9680    3.4570   12.1440 N.pl3   1  ATP1       -0.1054
     28  N1       -27.0060    2.3210   10.0460 N.ar    1  ATP1       -0.2040
     29  C2       -26.7290    2.2730    8.7240 C.ar    1  ATP1        0.2016
     30  N3       -26.1270    3.2850    8.0560 N.ar    1  ATP1       -0.2048
     31  C4       -25.7650    4.4330    8.6940 C.ar    1  ATP1        0.1692
@<TRIPOS>BOND
     1     1     4    2
     2     1     3    1
     3     1     8    1
     4     1     2    1
     5     5     8    1
     6     5    12    1
     7     5     7    2
     8     5     6    1
     9     9    10    2
    10     9    13    1
    11     9    11    1
    12     9    12    1
    13    13    14    1
    14    14    15    1
    15    15    17    1
    16    15    16    1
    17    16    21    1
    18    17    18    1
    19    17    19    1
    20    19    20    1
    21    19    21    1
    22    21    22    1
    23    22    31   ar
    24    22    23   ar
    25    23    24   ar
    26    24    25   ar
    27    25    31   ar
    28    25    26   ar
    29    26    28   ar
    30    26    27    1
    31    28    29   ar
    32    29    30   ar
    33    30    31   ar
