@<TRIPOS>MOLECULE
3tq8_TOP_1_ligand
   40    41     1     0     0
SMALL
NO_CHARGES


@<TRIPOS>ATOM
     1 C1          13.7470     2.4170    17.4260 C.ar         1 TOP2001   0.0000
     2 N2          12.6420     1.6460    17.3960 N.ar         1 TOP2001   1.0000
     3 C3          12.3370     0.8550    16.3310 C.ar         1 TOP2001   0.0000
     4 N4          11.2240     0.0770    16.3590 N.pl3        1 TOP2001   0.0000
     5 N5          13.1420     0.8190    15.2400 N.ar         1 TOP2001   0.0000
     6 C6          14.2570     1.5670    15.1730 C.ar         1 TOP2001   0.0000
     7 N7          15.0040     1.5020    14.0580 N.pl3        1 TOP2001   0.0000
     8 C8          14.6190     2.4390    16.3270 C.ar         1 TOP2001   0.0000
     9 C9          15.9010     3.2630    16.2690 C.3          1 TOP2001   0.0000
    10 C10         16.1750     4.2180    17.4180 C.ar         1 TOP2001   0.0000
    11 C11         16.4650     3.7760    18.7220 C.ar         1 TOP2001   0.0000
    12 C12         16.7220     4.6900    19.7640 C.ar         1 TOP2001   0.0000
    13 O13         17.0130     4.2970    21.0500 O.3          1 TOP2001   0.0000
    14 C14         17.0820     2.8960    21.3520 C.3          1 TOP2001   0.0000
    15 C15         16.6960     6.1340    19.4840 C.ar         1 TOP2001   0.0000
    16 O16         16.9230     7.0580    20.4720 O.3          1 TOP2001   0.0000
    17 C17         15.7800     7.3190    21.2910 C.3          1 TOP2001   0.0000
    18 C18         16.3710     6.5500    18.1100 C.ar         1 TOP2001   0.0000
    19 O19         16.3400     7.8840    17.8150 O.3          1 TOP2001   0.0000
    20 C20         16.2730     8.3000    16.4490 C.3          1 TOP2001   0.0000
    21 C21         16.1320     5.5760    17.1300 C.ar         1 TOP2001   0.0000
    22 H1          13.9456     2.9740    18.2324 H            1 TOP2001   0.0000
    23 H2          11.0002    -0.5040    15.5764 H            1 TOP2001   0.0000
    24 H3          10.6283     0.0852    17.1622 H            1 TOP2001   0.0000
    25 H4          15.8382     2.0482    13.9825 H            1 TOP2001   0.0000
    26 H5          14.7257     0.9074    13.3037 H            1 TOP2001   0.0000
    27 H6          15.8703     3.8057    15.4296 H            1 TOP2001   0.0000
    28 H7          16.6671     2.6219    16.2235 H            1 TOP2001   0.0000
    29 H8          16.4893     2.7948    18.9132 H            1 TOP2001   0.0000
    30 H9          17.3010     2.7741    22.3201 H            1 TOP2001   0.0000
    31 H10         16.2002     2.4683    21.1533 H            1 TOP2001   0.0000
    32 H11         17.7929     2.4692    20.7931 H            1 TOP2001   0.0000
    33 H12         16.0161     7.9980    21.9861 H            1 TOP2001   0.0000
    34 H13         15.0355     7.6689    20.7225 H            1 TOP2001   0.0000
    35 H14         15.4893     6.4725    21.7371 H            1 TOP2001   0.0000
    36 H15         16.2578     9.2989    16.4051 H            1 TOP2001   0.0000
    37 H16         17.0728     7.9569    15.9564 H            1 TOP2001   0.0000
    38 H17         15.4416     7.9352    16.0299 H            1 TOP2001   0.0000
    39 H18         15.9245     5.8677    16.1963 H            1 TOP2001   0.0000
    40 H19         12.0251     1.6553    18.1830 H            1 TOP2001   0.0000
@<TRIPOS>BOND
     1    1    2      ar
     2    1    8      ar
     3    2    3      ar
     4    3    4       1
     5    3    5      ar
     6    5    6      ar
     7    6    7       1
     8    6    8      ar
     9    8    9       1
    10    9   10       1
    11   10   11      ar
    12   10   21      ar
    13   11   12      ar
    14   12   13       1
    15   12   15      ar
    16   13   14       1
    17   15   16       1
    18   15   18      ar
    19   16   17       1
    20   18   19       1
    21   18   21      ar
    22   19   20       1
    23    1   22       1
    24    4   23       1
    25    4   24       1
    26    7   25       1
    27    7   26       1
    28    9   27       1
    29    9   28       1
    30   11   29       1
    31   14   30       1
    32   14   31       1
    33   14   32       1
    34   17   33       1
    35   17   34       1
    36   17   35       1
    37   20   36       1
    38   20   37       1
    39   20   38       1
    40   21   39       1
    41    2   40       1
@<TRIPOS>SUBSTRUCTURE
     1 TOP2001     1 GROUP             4 A     TOP     0 **** TOP A2001
