@<TRIPOS>MOLECULE
2c29_NAP_3_ligand
   73    77     1     0     0
SMALL
NO_CHARGES


@<TRIPOS>ATOM
     1 PA          77.2650    65.4230    28.4230 P.3          1 NAP1330   0.0000
     2 O1A         75.8070    65.4080    28.3060 O.co2        1 NAP1330   0.0000
     3 O2A         78.0270    66.5870    27.8280 O.co2        1 NAP1330  -1.0000
     4 O5B         77.7870    64.0230    27.8930 O.3          1 NAP1330   0.0000
     5 C5B         76.9070    62.9370    28.0170 C.3          1 NAP1330   0.0000
     6 C4B         76.8550    62.2430    26.6660 C.3          1 NAP1330   0.0000
     7 O4B         75.9980    61.1170    26.7380 O.3          1 NAP1330   0.0000
     8 C3B         76.3090    63.1190    25.5450 C.3          1 NAP1330   0.0000
     9 O3B         77.3310    63.6660    24.7530 O.3          1 NAP1330   0.0000
    10 C2B         75.4640    62.1850    24.6910 C.3          1 NAP1330   0.0000
    11 O2B         76.1260    62.0320    23.4330 O.3          1 NAP1330   0.0000
    12 C1B         75.4430    60.8690    25.4710 C.3          1 NAP1330   0.0000
    13 N9A         74.1030    60.2570    25.6370 N.pl3        1 NAP1330   0.0000
    14 C8A         72.9730    60.7740    26.1630 C.2          1 NAP1330   0.0000
    15 N7A         72.0030    59.8500    26.1420 N.2          1 NAP1330   0.0000
    16 C5A         72.5130    58.7260    25.6100 C.ar         1 NAP1330   0.0000
    17 C6A         71.9790    57.4720    25.3570 C.ar         1 NAP1330   0.0000
    18 N6A         70.6990    57.2070    25.6040 N.pl3        1 NAP1330   0.0000
    19 N1A         72.7810    56.5190    24.7880 N.ar         1 NAP1330   0.0000
    20 C2A         74.1030    56.7740    24.4900 C.ar         1 NAP1330   0.0000
    21 N3A         74.6270    58.0260    24.7490 N.ar         1 NAP1330   0.0000
    22 C4A         73.8440    58.9680    25.3060 C.ar         1 NAP1330   0.0000
    23 O3          77.5810    65.3350    30.0210 O.3          1 NAP1330   0.0000
    24 PN          78.9980    65.2990    30.7950 P.3          1 NAP1330   0.0000
    25 O1N         78.9670    66.6050    31.6060 O.co2        1 NAP1330   0.0000
    26 O2N         80.1150    65.1170    29.8730 O.co2        1 NAP1330  -1.0000
    27 O5D         78.8820    63.9930    31.6970 O.3          1 NAP1330   0.0000
    28 C5D         79.4670    62.7880    31.2810 C.3          1 NAP1330   0.0000
    29 C4D         79.4630    61.8000    32.4500 C.3          1 NAP1330   0.0000
    30 O4D         79.9950    62.4240    33.6040 O.3          1 NAP1330   0.0000
    31 C3D         78.0700    61.2900    32.8330 C.3          1 NAP1330   0.0000
    32 O3D         78.1190    59.8940    33.1410 O.3          1 NAP1330   0.0000
    33 C2D         77.7120    62.1060    34.0540 C.3          1 NAP1330   0.0000
    34 O2D         76.7870    61.5200    34.9590 O.3          1 NAP1330   0.0000
    35 C1D         79.0880    62.2610    34.6820 C.3          1 NAP1330   0.0000
    36 N1N         79.2270    63.4190    35.5870 N.ar         1 NAP1330   1.0000
    37 C2N         79.2650    64.6870    35.0920 C.ar         1 NAP1330   0.0000
    38 C3N         79.4210    65.7340    35.9900 C.ar         1 NAP1330   0.0000
    39 C7N         79.6730    67.1280    35.5150 C.2          1 NAP1330   0.0000
    40 O7N         79.6540    68.1250    36.4900 O.2          1 NAP1330   0.0000
    41 N7N         79.8920    67.3610    34.2340 N.am         1 NAP1330   0.0000
    42 C4N         79.5270    65.5050    37.3610 C.ar         1 NAP1330   0.0000
    43 C5N         79.5240    64.1980    37.8360 C.ar         1 NAP1330   0.0000
    44 C6N         79.3630    63.1840    36.9200 C.ar         1 NAP1330   0.0000
    45 P2B         75.3820    61.7990    22.0130 P.3          1 NAP1330   0.0000
    46 O1X         74.3010    62.8170    21.9340 O.co2        1 NAP1330   0.0000
    47 O2X         76.3980    61.8930    20.8950 O.co2        1 NAP1330  -1.0000
    48 O3X         74.8280    60.3740    21.9190 O.co2        1 NAP1330  -1.0000
    49 H5B1        75.9958    63.2618    28.2705 H            1 NAP1330   0.0000
    50 H5B2        77.2411    62.3034    28.7148 H            1 NAP1330   0.0000
    51 H4B         77.7751    61.9369    26.4214 H            1 NAP1330   0.0000
    52 H3B         75.7396    63.8483    25.9243 H            1 NAP1330   0.0000
    53 H5          77.2178    63.3630    23.8068 H            1 NAP1330   0.0000
    54 H2B         74.5394    62.5462    24.5696 H            1 NAP1330   0.0000
    55 H1B         76.0296    60.2137    24.9951 H            1 NAP1330   0.0000
    56 H8A         72.8746    61.7049    26.5148 H            1 NAP1330   0.0000
    57 H6A1        70.3314    56.2964    25.4151 H            1 NAP1330   0.0000
    58 H6A2        70.1044    57.9184    25.9786 H            1 NAP1330   0.0000
    59 H2A         74.6771    56.0595    24.0902 H            1 NAP1330   0.0000
    60 H5D1        80.4082    62.9562    30.9879 H            1 NAP1330   0.0000
    61 H5D2        78.9435    62.4072    30.5188 H            1 NAP1330   0.0000
    62 H4D         80.0386    61.0175    32.2125 H            1 NAP1330   0.0000
    63 H3D         77.4189    61.4625    32.0938 H            1 NAP1330   0.0000
    64 H16         79.0191    59.6659    33.5121 H            1 NAP1330   0.0000
    65 H2D         77.3743    63.0026    33.7675 H            1 NAP1330   0.0000
    66 H18         76.6265    62.1451    35.7229 H            1 NAP1330   0.0000
    67 H1D         79.3174    61.4251    35.1807 H            1 NAP1330   0.0000
    68 H2N         79.1829    64.8589    34.1103 H            1 NAP1330   0.0000
    69 H7N1        80.0605    68.2944    33.9173 H            1 NAP1330   0.0000
    70 H7N2        79.8893    66.6041    33.5805 H            1 NAP1330   0.0000
    71 H4N         79.6044    66.2731    37.9967 H            1 NAP1330   0.0000
    72 H5N         79.6351    64.0018    38.8102 H            1 NAP1330   0.0000
    73 H6N         79.3453    62.2389    37.2464 H            1 NAP1330   0.0000
@<TRIPOS>BOND
     1    1    2      ar
     2    1    3      ar
     3    1    4       1
     4    1   23       1
     5    4    5       1
     6    5    6       1
     7    6    7       1
     8    6    8       1
     9    7   12       1
    10    8    9       1
    11    8   10       1
    12   10   11       1
    13   10   12       1
    14   11   45       1
    15   12   13       1
    16   13   14       1
    17   13   22       1
    18   14   15       2
    19   15   16       1
    20   16   17      ar
    21   16   22      ar
    22   17   18       1
    23   17   19      ar
    24   19   20      ar
    25   20   21      ar
    26   21   22      ar
    27   23   24       1
    28   24   25      ar
    29   24   26      ar
    30   24   27       1
    31   27   28       1
    32   28   29       1
    33   29   30       1
    34   29   31       1
    35   30   35       1
    36   31   32       1
    37   31   33       1
    38   33   34       1
    39   33   35       1
    40   35   36       1
    41   36   37      ar
    42   36   44      ar
    43   37   38      ar
    44   38   39       1
    45   38   42      ar
    46   39   40       2
    47   39   41      am
    48   42   43      ar
    49   43   44      ar
    50   45   46      ar
    51   45   47      ar
    52   45   48      ar
    53   43   72       1
    54    5   49       1
    55    5   50       1
    56    6   51       1
    57    8   52       1
    58    9   53       1
    59   10   54       1
    60   12   55       1
    61   14   56       1
    62   18   57       1
    63   18   58       1
    64   20   59       1
    65   44   73       1
    66   28   60       1
    67   28   61       1
    68   29   62       1
    69   31   63       1
    70   32   64       1
    71   33   65       1
    72   34   66       1
    73   35   67       1
    74   37   68       1
    75   41   69       1
    76   41   70       1
    77   42   71       1
@<TRIPOS>SUBSTRUCTURE
     1 NAP1330     1 GROUP             4 D     NAP     0 **** NAP D1330
