@<TRIPOS>MOLECULE
2k0g_CMP_1_ligand
   34    37     1     0     0
SMALL
NO_CHARGES


@<TRIPOS>ATOM
     1 P           34.1840    -0.6800    -5.9380 P.3          1 CMP370   0.0000
     2 O1P         35.5910    -0.6960    -6.3990 O.3          1 CMP370   0.0000
     3 O2P         33.3440     0.3530    -6.8440 O.2          1 CMP370   0.0000
     4 O5'         33.5600    -2.1500    -6.0980 O.3          1 CMP370   0.0000
     5 C5'         34.2510    -3.0390    -5.2080 C.3          1 CMP370   0.0000
     6 C4'         34.0740    -2.5100    -3.7970 C.3          1 CMP370   0.0000
     7 O4'         34.6390    -3.3080    -2.7590 O.3          1 CMP370   0.0000
     8 C3'         34.8580    -1.1780    -3.6770 C.3          1 CMP370   0.0000
     9 O3'         34.1370    -0.1970    -4.3980 O.3          1 CMP370   0.0000
    10 C2'         34.8880    -0.9870    -2.1500 C.3          1 CMP370   0.0000
    11 O2'         33.7930    -0.1730    -1.7220 O.3          1 CMP370   0.0000
    12 C1'         34.7560    -2.4330    -1.6130 C.3          1 CMP370   0.0000
    13 N9          35.9450    -2.7850    -0.8330 N.pl3        1 CMP370   0.0000
    14 C8          37.1600    -3.1420    -1.3350 C.2          1 CMP370   0.0000
    15 N7          37.9880    -3.3900    -0.3610 N.2          1 CMP370   0.0000
    16 C5          37.3580    -3.2020     0.8240 C.ar         1 CMP370   0.0000
    17 C6          37.7340    -3.3240     2.1730 C.ar         1 CMP370   0.0000
    18 N6          39.0190    -3.7030     2.5180 N.pl3        1 CMP370   0.0000
    19 N1          36.8270    -3.0610     3.1070 N.ar         1 CMP370   0.0000
    20 C2          35.6010    -2.6970     2.7870 C.ar         1 CMP370   0.0000
    21 N3          35.2020    -2.5750     1.5380 N.ar         1 CMP370   0.0000
    22 C4          36.0400    -2.8180     0.5340 C.ar         1 CMP370   0.0000
    23 H1P         35.6232    -0.4961    -7.3783 H            1 CMP370   0.0000
    24 H5'1        35.2229    -3.0671    -5.4416 H            1 CMP370   0.0000
    25 H5'2        33.8647    -3.9587    -5.2777 H            1 CMP370   0.0000
    26 H4'         33.1040    -2.3509    -3.6132 H            1 CMP370   0.0000
    27 H3'         35.7842    -1.2770    -4.0408 H            1 CMP370   0.0000
    28 H2'         35.7574    -0.5844    -1.8637 H            1 CMP370   0.0000
    29 H7          34.0693     0.7880    -1.7291 H            1 CMP370   0.0000
    30 H1'         33.9391    -2.5102    -1.0414 H            1 CMP370   0.0000
    31 H9          37.3831    -3.2044    -2.3078 H            1 CMP370   0.0000
    32 H10         39.2741    -3.7862     3.4813 H            1 CMP370   0.0000
    33 H11         39.6927    -3.8937     1.8041 H            1 CMP370   0.0000
    34 H12         34.9490    -2.5062     3.5209 H            1 CMP370   0.0000
@<TRIPOS>BOND
     1    1    2       1
     2    1    3       2
     3    1    4       1
     4    1    9       1
     5    4    5       1
     6    5    6       1
     7    6    7       1
     8    6    8       1
     9    7   12       1
    10    8    9       1
    11    8   10       1
    12   10   11       1
    13   10   12       1
    14   12   13       1
    15   13   14       1
    16   13   22       1
    17   14   15       2
    18   15   16       1
    19   16   17      ar
    20   16   22      ar
    21   17   18       1
    22   17   19      ar
    23   19   20      ar
    24   20   21      ar
    25   21   22      ar
    26    2   23       1
    27    5   24       1
    28    5   25       1
    29    6   26       1
    30    8   27       1
    31   10   28       1
    32   11   29       1
    33   12   30       1
    34   14   31       1
    35   18   32       1
    36   18   33       1
    37   20   34       1
@<TRIPOS>SUBSTRUCTURE
     1 CMP370      1 GROUP             4 A     CMP     0 **** CMP A 370
