@<TRIPOS>MOLECULE
3p62_FMN_1_ligand
   50    52     1     0     0
SMALL
NO_CHARGES


@<TRIPOS>ATOM
     1 N1          22.3050    26.9950    20.0590 N.2          1 FMN401   0.0000
     2 C2          21.5680    28.0730    20.3800 C.2          1 FMN401   0.0000
     3 O2          20.6410    28.4370    19.6470 O.2          1 FMN401   0.0000
     4 N3          21.9000    28.8450    21.4610 N.pl3        1 FMN401   0.0000
     5 C4          22.9020    28.4900    22.3260 C.2          1 FMN401   0.0000
     6 O4          23.1860    29.2520    23.2960 O.2          1 FMN401   0.0000
     7 C4A         23.6520    27.3230    22.0170 C.2          1 FMN401   0.0000
     8 N5          24.6280    26.8870    22.8450 N.2          1 FMN401   0.0000
     9 C5A         25.4500    25.8720    22.4650 C.ar         1 FMN401   0.0000
    10 C6          26.5580    25.5310    23.2620 C.ar         1 FMN401   0.0000
    11 C7          27.4770    24.5570    22.8600 C.ar         1 FMN401   0.0000
    12 C7M         28.6450    24.2260    23.7670 C.3          1 FMN401   0.0000
    13 C8          27.2520    23.9020    21.6540 C.ar         1 FMN401   0.0000
    14 C8M         28.2150    22.8440    21.1600 C.3          1 FMN401   0.0000
    15 C9          26.1550    24.2520    20.8640 C.ar         1 FMN401   0.0000
    16 C9A         25.2120    25.2290    21.2410 C.ar         1 FMN401   0.0000
    17 N10         24.1330    25.5660    20.4770 N.pl3        1 FMN401   0.0000
    18 C10         23.3400    26.6020    20.8580 C.2          1 FMN401   0.0000
    19 C1'         24.0470    25.0950    19.0670 C.3          1 FMN401   0.0000
    20 C2'         25.0110    25.9010    18.1930 C.3          1 FMN401   0.0000
    21 O2'         24.5240    27.2300    17.9810 O.3          1 FMN401   0.0000
    22 C3'         25.1700    25.3790    16.7710 C.3          1 FMN401   0.0000
    23 O3'         23.9030    25.3290    16.0830 O.3          1 FMN401   0.0000
    24 C4'         25.8280    24.0350    16.6340 C.3          1 FMN401   0.0000
    25 O4'         26.9360    23.9740    17.5230 O.3          1 FMN401   0.0000
    26 C5'         26.2570    23.8970    15.1610 C.3          1 FMN401   0.0000
    27 O5'         26.8960    22.6890    14.9740 O.3          1 FMN401   0.0000
    28 P           28.4970    22.6130    14.9170 P.3          1 FMN401   0.0000
    29 O1P         29.0070    22.7840    16.3310 O.co2        1 FMN401   0.0000
    30 O2P         28.6840    21.2070    14.3980 O.co2        1 FMN401  -1.0000
    31 O3P         28.9340    23.7410    13.9650 O.co2        1 FMN401  -1.0000
    32 H1          21.3962    29.6933    21.6242 H            1 FMN401   0.0000
    33 H2          26.6915    25.9964    24.1370 H            1 FMN401   0.0000
    34 H7M1        29.2065    23.5161    23.3418 H            1 FMN401   0.0000
    35 H7M2        29.1981    25.0466    23.9112 H            1 FMN401   0.0000
    36 H7M3        28.3012    23.8969    24.6465 H            1 FMN401   0.0000
    37 H8M1        27.8948    22.4851    20.2833 H            1 FMN401   0.0000
    38 H8M2        29.1225    23.2476    21.0435 H            1 FMN401   0.0000
    39 H8M3        28.2639    22.1004    21.8268 H            1 FMN401   0.0000
    40 H9          26.0325    23.7864    19.9875 H            1 FMN401   0.0000
    41 H1'1        23.1129    25.2181    18.7320 H            1 FMN401   0.0000
    42 H1'2        24.2913    24.1262    19.0249 H            1 FMN401   0.0000
    43 H2'         25.9070    25.9412    18.6351 H            1 FMN401   0.0000
    44 H13         24.8674    27.8301    18.7035 H            1 FMN401   0.0000
    45 H3'         25.7428    26.0360    16.2809 H            1 FMN401   0.0000
    46 H15         23.7107    24.3874    15.8067 H            1 FMN401   0.0000
    47 H4'         25.1730    23.3148    16.8626 H            1 FMN401   0.0000
    48 H17         27.6371    23.3719    17.1410 H            1 FMN401   0.0000
    49 H5'1        26.8801    24.6427    14.9250 H            1 FMN401   0.0000
    50 H5'2        25.4486    23.9398    14.5740 H            1 FMN401   0.0000
@<TRIPOS>BOND
     1    1    2       1
     2    1   18       2
     3    2    3       2
     4    2    4       1
     5    4    5       1
     6    5    6       2
     7    5    7       1
     8    7    8       2
     9    7   18       1
    10    8    9       1
    11    9   10      ar
    12    9   16      ar
    13   10   11      ar
    14   11   12       1
    15   11   13      ar
    16   13   14       1
    17   13   15      ar
    18   15   16      ar
    19   16   17       1
    20   17   18       1
    21   17   19       1
    22   19   20       1
    23   20   21       1
    24   20   22       1
    25   22   23       1
    26   22   24       1
    27   24   25       1
    28   24   26       1
    29   26   27       1
    30   27   28       1
    31   28   29      ar
    32   28   30      ar
    33   28   31      ar
    34    4   32       1
    35   10   33       1
    36   12   34       1
    37   12   35       1
    38   12   36       1
    39   14   37       1
    40   14   38       1
    41   14   39       1
    42   15   40       1
    43   19   41       1
    44   19   42       1
    45   20   43       1
    46   21   44       1
    47   22   45       1
    48   23   46       1
    49   24   47       1
    50   25   48       1
    51   26   49       1
    52   26   50       1
@<TRIPOS>SUBSTRUCTURE
     1 FMN401      1 GROUP             4 A     FMN     0 **** FMN A 401
