@<TRIPOS>MOLECULE
2i35_RET_1_ligand
   50    50     1     0     0
SMALL
USER_CHARGES


@<TRIPOS>ATOM
     1 C1          40.5330   135.3910    -0.1630 C.3          1 RET1332   0.0000
     2 C2          41.4580   134.2580     0.3070 C.3          1 RET1332   0.0000
     3 C3          42.8030   134.7500     0.8520 C.3          1 RET1332   0.0000
     4 C4          43.2630   136.0950     0.2930 C.3          1 RET1332   0.0000
     5 C5          42.1920   137.1560     0.4030 C.2          1 RET1332   0.0000
     6 C6          40.9000   136.8340     0.2090 C.2          1 RET1332   0.0000
     7 C7          39.8460   137.8810     0.2810 C.2          1 RET1332   0.0000
     8 C8          39.1170   138.1000     1.3720 C.2          1 RET1332   0.0000
     9 C9          38.0740   139.1400     1.3920 C.2          1 RET1332   0.0000
    10 C10         38.3830   140.3580     1.8780 C.2          1 RET1332   0.0000
    11 C11         37.4360   141.4730     1.9630 C.2          1 RET1332   0.0000
    12 C12         37.1050   142.1160     3.0910 C.2          1 RET1332   0.0000
    13 C13         37.6000   141.8320     4.4630 C.2          1 RET1332   0.0000
    14 C14         37.2670   142.6690     5.4590 C.2          1 RET1332   0.0000
    15 C15         37.7280   142.4230     6.8230 C.3          1 RET1332   0.0000
    16 C16         39.1280   135.1600    -0.7290 C.3          1 RET1332   0.0000
    17 C17         39.8240   135.1480     1.1680 C.3          1 RET1332   0.0000
    18 C18         42.6230   138.5560     0.7430 C.3          1 RET1332   0.0000
    19 C19         36.7010   138.7920     0.8840 C.3          1 RET1332   0.0000
    20 C20         38.4520   140.6360     4.7870 C.3          1 RET1332   0.0000
    21 H1          41.6339   133.6514    -0.4683 H            1 RET1332   0.0000
    22 H2          40.9914   133.7483     1.0299 H            1 RET1332   0.0000
    23 H3          43.4981   134.0661     0.6304 H            1 RET1332   0.0000
    24 H4          42.7244   134.8357     1.8452 H            1 RET1332   0.0000
    25 H5          43.5026   135.9781    -0.6708 H            1 RET1332   0.0000
    26 H6          44.0688   136.3968     0.8026 H            1 RET1332   0.0000
    27 H7          39.6778   138.4457    -0.5270 H            1 RET1332   0.0000
    28 H8          39.2796   137.5501     2.1912 H            1 RET1332   0.0000
    29 H9          39.3170   140.5107     2.2009 H            1 RET1332   0.0000
    30 H10         37.0037   141.7773     1.1142 H            1 RET1332   0.0000
    31 H11         36.4537   142.8693     2.9995 H            1 RET1332   0.0000
    32 H12         36.6981   143.4682     5.2650 H            1 RET1332   0.0000
    33 H13         37.3854   143.1437     7.4257 H            1 RET1332   0.0000
    34 H14         37.3864   141.5367     7.1356 H            1 RET1332   0.0000
    35 H15         38.7278   142.4202     6.8415 H            1 RET1332   0.0000
    36 H16         38.7157   136.0395    -0.9669 H            1 RET1332   0.0000
    37 H17         39.1881   134.5879    -1.5470 H            1 RET1332   0.0000
    38 H18         38.5633   134.7019    -0.0426 H            1 RET1332   0.0000
    39 H19         39.0525   135.7784     1.2547 H            1 RET1332   0.0000
    40 H20         39.4900   134.2060     1.2007 H            1 RET1332   0.0000
    41 H21         40.4653   135.3006     1.9200 H            1 RET1332   0.0000
    42 H22         41.8205   139.1513     0.7834 H            1 RET1332   0.0000
    43 H23         43.0836   138.5567     1.6306 H            1 RET1332   0.0000
    44 H24         43.2515   138.8910     0.0411 H            1 RET1332   0.0000
    45 H25         36.1051   139.5916     0.9593 H            1 RET1332   0.0000
    46 H26         36.7614   138.5103    -0.0736 H            1 RET1332   0.0000
    47 H27         36.3240   138.0428     1.4287 H            1 RET1332   0.0000
    48 H28         38.6715   140.6375     5.7626 H            1 RET1332   0.0000
    49 H29         37.9533   139.7998     4.5589 H            1 RET1332   0.0000
    50 H30         39.2978   140.6753     4.2550 H            1 RET1332   0.0000
@<TRIPOS>BOND
     1    1    2       1
     2    1    6       1
     3    1   16       1
     4    1   17       1
     5    2    3       1
     6    3    4       1
     7    4    5       1
     8    5    6       2
     9    5   18       1
    10    6    7       1
    11    7    8       2
    12    8    9       1
    13    9   10       2
    14    9   19       1
    15   10   11       1
    16   11   12       2
    17   12   13       1
    18   13   14       2
    19   13   20       1
    20   14   15       1
    21    2   21       1
    22    2   22       1
    23    3   23       1
    24    3   24       1
    25    4   25       1
    26    4   26       1
    27    7   27       1
    28    8   28       1
    29   10   29       1
    30   11   30       1
    31   12   31       1
    32   14   32       1
    33   15   33       1
    34   15   34       1
    35   15   35       1
    36   16   36       1
    37   16   37       1
    38   16   38       1
    39   17   39       1
    40   17   40       1
    41   17   41       1
    42   18   42       1
    43   18   43       1
    44   18   44       1
    45   19   45       1
    46   19   46       1
    47   19   47       1
    48   20   48       1
    49   20   49       1
    50   20   50       1
@<TRIPOS>SUBSTRUCTURE
     1 RET1332     1 GROUP             4 A     RET     0 **** RET A1332
