@<TRIPOS>MOLECULE
1nx8_N7P_2_ligand
   21    21     1     0     0
SMALL
NO_CHARGES


@<TRIPOS>ATOM
     1 C1          22.9520    29.5910    42.6920 C.2          1 N7P291   0.0000
     2 C2          22.0680    30.5460    43.4920 C.3          1 N7P291   0.0000
     3 O10         22.3990    28.7740    41.9060 O.co2        1 N7P291   0.0000
     4 O11         24.1870    29.6240    42.8820 O.co2        1 N7P291  -1.0000
     5 N6          21.6590    29.9540    44.7340 N.am         1 N7P291   0.0000
     6 C7          20.6770    29.0590    44.7970 C.2          1 N7P291   0.0000
     7 O9          20.1140    28.7040    43.7830 O.2          1 N7P291   0.0000
     8 C8          20.4030    28.4410    46.0380 C.3          1 N7P291   0.0000
     9 C5          22.4960    30.3750    45.8630 C.3          1 N7P291   0.0000
    10 C4          22.8420    31.7570    45.4790 C.3          1 N7P291   0.0000
    11 C3          22.8890    31.7650    43.9480 C.3          1 N7P291   0.0000
    12 H1          21.2743    30.8315    42.9548 H            1 N7P291   0.0000
    13 H2          19.6452    27.7975    45.9298 H            1 N7P291   0.0000
    14 H3          21.2153    27.9496    46.3522 H            1 N7P291   0.0000
    15 H4          20.1546    29.1385    46.7101 H            1 N7P291   0.0000
    16 H5          23.3128    29.8038    45.9443 H            1 N7P291   0.0000
    17 H6          21.9864    30.3523    46.7231 H            1 N7P291   0.0000
    18 H7          23.7328    32.0106    45.8561 H            1 N7P291   0.0000
    19 H8          22.1463    32.3948    45.8094 H            1 N7P291   0.0000
    20 H9          22.4858    32.6082    43.5924 H            1 N7P291   0.0000
    21 H10         23.8335    31.6868    43.6290 H            1 N7P291   0.0000
@<TRIPOS>BOND
     1    1    2       1
     2    1    3      ar
     3    1    4      ar
     4    2    5       1
     5    2   11       1
     6    5    6      am
     7    5    9       1
     8    6    7       2
     9    6    8       1
    10    9   10       1
    11   10   11       1
    12    2   12       1
    13   11   21       1
    14    8   13       1
    15    8   14       1
    16    8   15       1
    17    9   16       1
    18    9   17       1
    19   10   18       1
    20   10   19       1
    21   11   20       1
@<TRIPOS>SUBSTRUCTURE
     1 N7P291      1 GROUP             4 C     N7P     0 **** N7P C 291
