@<TRIPOS>MOLECULE
4kvm_SER_ALA_SER_GLU_1XE_3_ligand
  128   130     5     0     0
SMALL
NO_CHARGES


@<TRIPOS>ATOM
     1 N          -34.0250   -18.1120  -148.5070 N.am         1 SER5122   0.0000
     2 CA         -35.2220   -18.6590  -147.8800 C.3          1 SER5122   0.0000
     3 C          -36.2690   -19.0030  -148.9430 C.2          1 SER5122   0.0000
     4 O          -36.5740   -18.1830  -149.8080 O.2          1 SER5122   0.0000
     5 CB         -35.8170   -17.6480  -146.9150 C.3          1 SER5122   0.0000
     6 OG         -36.7690   -16.8850  -147.6070 O.3          1 SER5122   0.0000
     7 HA         -34.9794   -19.4889  -147.3776 H            1 SER5122   0.0000
     8 HB1        -35.0958   -17.0509  -146.5638 H            1 SER5122   0.0000
     9 HB2        -36.2552   -18.1252  -146.1532 H            1 SER5122   0.0000
    10 HG         -37.1766   -17.4391  -148.3328 H            1 SER5122   0.0000
    11 N          -36.8200   -20.2090  -148.8810 N.am         2 ALA5123   0.0000
    12 CA         -37.8020   -20.6270  -149.8700 C.3          2 ALA5123   0.0000
    13 C          -39.1940   -20.2710  -149.3900 C.2          2 ALA5123   0.0000
    14 O          -39.3820   -19.9480  -148.2150 O.2          2 ALA5123   0.0000
    15 CB         -37.6990   -22.1170  -150.1230 C.3          2 ALA5123   0.0000
    16 H5         -36.5577   -20.8362  -148.1477 H            2 ALA5123   0.0000
    17 H6         -37.6230   -20.1421  -150.7261 H            2 ALA5123   0.0000
    18 H7         -38.3796   -22.3873  -150.8040 H            2 ALA5123   0.0000
    19 H8         -36.7837   -22.3351  -150.4617 H            2 ALA5123   0.0000
    20 HB3        -37.8657   -22.6122  -149.2703 H            2 ALA5123   0.0000
    21 N          -40.1650   -20.3570  -150.2970 N.am         3 SER5124   0.0000
    22 CA         -41.5290   -19.8980  -150.0340 C.3          3 SER5124   0.0000
    23 C          -42.5730   -21.0110  -150.0910 C.2          3 SER5124   0.0000
    24 O          -43.1890   -21.2460  -151.1350 O.2          3 SER5124   0.0000
    25 CB         -41.9150   -18.8160  -151.0450 C.3          3 SER5124   0.0000
    26 OG         -42.0240   -19.3630  -152.3530 O.3          3 SER5124   0.0000
    27 H10        -39.9539   -20.7502  -151.1919 H            3 SER5124   0.0000
    28 H11        -41.5522   -19.4941  -149.1195 H            3 SER5124   0.0000
    29 H12        -41.2142   -18.1026  -151.0453 H            3 SER5124   0.0000
    30 H13        -42.7943   -18.4194  -150.7811 H            3 SER5124   0.0000
    31 H14        -42.3091   -20.3195  -152.2916 H            3 SER5124   0.0000
    32 N          -42.7810   -21.6840  -148.9640 N.am         4 GLU5125   0.0000
    33 CA         -43.8150   -22.7090  -148.8650 C.3          4 GLU5125   0.0000
    34 C          -44.8470   -22.3160  -147.8160 C.2          4 GLU5125   0.0000
    35 O          -44.8000   -21.2100  -147.2760 O.2          4 GLU5125   0.0000
    36 CB         -43.2080   -24.0750  -148.5340 C.3          4 GLU5125   0.0000
    37 CG         -42.8220   -24.8930  -149.7570 C.3          4 GLU5125   0.0000
    38 CD         -41.9650   -24.1160  -150.7460 C.2          4 GLU5125   0.0000
    39 OE1        -40.8010   -23.8030  -150.4160 O.co2        4 GLU5125   0.0000
    40 OE2        -42.4640   -23.8080  -151.8510 O.co2        4 GLU5125  -1.0000
    41 H15        -42.2151   -21.4831  -148.1643 H            4 GLU5125   0.0000
    42 H16        -44.2763   -22.7763  -149.7497 H            4 GLU5125   0.0000
    43 H17        -45.5684   -22.9610  -147.5637 H            4 GLU5125   0.0000
    44 H18        -43.8774   -24.5968  -148.0051 H            4 GLU5125   0.0000
    45 H19        -42.3874   -23.9289  -147.9815 H            4 GLU5125   0.0000
    46 HG1        -43.6579   -25.1860  -150.2212 H            4 GLU5125   0.0000
    47 HG2        -42.3097   -25.6966  -149.4541 H            4 GLU5125   0.0000
    48 N1A        -22.4510    -4.1970  -140.9100 N.ar         5 1XE5201   0.0000
    49 C2A        -22.6210    -5.5240  -140.9610 C.ar         5 1XE5201   0.0000
    50 N3A        -21.8600    -6.3430  -141.7110 N.ar         5 1XE5201   0.0000
    51 C4A        -20.8850    -5.8300  -142.4870 C.ar         5 1XE5201   0.0000
    52 C5A        -20.6620    -4.4730  -142.4910 C.ar         5 1XE5201   0.0000
    53 C6A        -21.4900    -3.6330  -141.6630 C.ar         5 1XE5201   0.0000
    54 N6A        -21.3180    -2.1880  -141.6130 N.pl3        5 1XE5201   0.0000
    55 N7A        -19.6300    -4.2550  -143.3490 N.2          5 1XE5201   0.0000
    56 C8A        -19.2270    -5.4300  -143.8520 C.2          5 1XE5201   0.0000
    57 N9A        -19.9960    -6.3960  -143.3510 N.pl3        5 1XE5201   0.0000
    58 C1B        -19.9360    -7.7880  -143.5470 C.2          5 1XE5201   0.0000
    59 C2B        -19.2670    -8.5290  -144.5300 C.2          5 1XE5201   0.0000
    60 O2B        -18.4860    -8.1510  -145.6800 O.3          5 1XE5201   0.0000
    61 C3B        -19.5280    -9.8910  -144.2000 C.2          5 1XE5201   0.0000
    62 O3B        -19.0670   -10.9230  -144.9070 O.3          5 1XE5201   0.0000
    63 P3B        -17.5190   -11.1220  -144.8920 P.3          5 1XE5201   0.0000
    64 O7A        -16.8700   -10.0320  -145.8730 O.co2        5 1XE5201   0.0000
    65 O8A        -17.0480   -10.8140  -143.4990 O.co2        5 1XE5201  -1.0000
    66 O9A        -17.2430   -12.5330  -145.2500 O.co2        5 1XE5201  -1.0000
    67 C4B        -20.2980    -9.8900  -143.0570 C.2          5 1XE5201   0.0000
    68 O4B        -20.4960    -8.6490  -142.7100 O.2          5 1XE5201   0.0000
    69 C5B        -20.7880   -11.0980  -142.3570 C.3          5 1XE5201   0.0000
    70 O5B        -21.7640   -12.0460  -142.8920 O.3          5 1XE5201   0.0000
    71 P1A        -22.2660   -13.1630  -141.8160 P.3          5 1XE5201   0.0000
    72 O1A        -21.0620   -13.5710  -140.9350 O.co2        5 1XE5201   0.0000
    73 O2A        -22.7960   -14.3460  -142.4810 O.co2        5 1XE5201  -1.0000
    74 O3A        -23.3390   -12.4670  -140.8760 O.3          5 1XE5201   0.0000
    75 P2A        -24.0790   -13.3620  -139.8350 P.3          5 1XE5201   0.0000
    76 O4A        -24.6930   -12.4340  -138.7200 O.co2        5 1XE5201   0.0000
    77 O5A        -23.0740   -14.3490  -139.1670 O.co2        5 1XE5201  -1.0000
    78 O6A        -25.2810   -14.0580  -140.6480 O.3          5 1XE5201   0.0000
    79 CBP        -27.4050   -13.2510  -141.9040 C.3          5 1XE5201   0.0000
    80 CCP        -25.8690   -13.4410  -141.8390 C.3          5 1XE5201   0.0000
    81 CDP        -27.8380   -12.6760  -143.1870 C.3          5 1XE5201   0.0000
    82 CEP        -28.0940   -14.6020  -141.8010 C.3          5 1XE5201   0.0000
    83 CAP        -27.8880   -12.3810  -140.6900 C.3          5 1XE5201   0.0000
    84 OAP        -27.7950   -11.0180  -141.0630 O.3          5 1XE5201   0.0000
    85 C9P        -29.2830   -12.6660  -140.1440 C.2          5 1XE5201   0.0000
    86 O9P        -29.4700   -13.2540  -139.0430 O.2          5 1XE5201   0.0000
    87 N8P        -30.4160   -12.2250  -140.9870 N.am         5 1XE5201   0.0000
    88 C7P        -31.8190   -12.4250  -140.6360 C.3          5 1XE5201   0.0000
    89 C6P        -32.6570   -12.6170  -141.8500 C.3          5 1XE5201   0.0000
    90 C5P        -32.2560   -13.7570  -142.7610 C.2          5 1XE5201   0.0000
    91 O5P        -32.5290   -14.9450  -142.4430 O.2          5 1XE5201   0.0000
    92 N4P        -31.5290   -13.5410  -144.0230 N.am         5 1XE5201   0.0000
    93 C3P        -31.1920   -14.7490  -144.8280 C.3          5 1XE5201   0.0000
    94 C2P        -32.2810   -15.1940  -145.7560 C.3          5 1XE5201   0.0000
    95 S1P        -31.9940   -15.1920  -147.4620 S.3          5 1XE5201   0.0000
    96 C1         -31.8420   -16.8140  -148.1070 C.3          5 1XE5201   0.0000
    97 C2         -32.8840   -17.8550  -147.6850 C.2          5 1XE5201   0.0000
    98 O21        -32.8400   -18.2130  -146.3650 O.2          5 1XE5201   0.0000
    99 H2A        -23.3527    -5.9286  -140.4124 H            5 1XE5201   0.0000
   100 H6A1       -20.6091    -1.7494  -142.1654 H            5 1XE5201   0.0000
   101 H6A2       -21.9088    -1.6342  -141.0263 H            5 1XE5201   0.0000
   102 H8A        -18.4737    -5.5603  -144.4967 H            5 1XE5201   0.0000
   103 H2B        -18.0865    -8.8555  -146.2666 H            5 1XE5201   0.0000
   104 H5B1       -21.1822   -10.7665  -141.4999 H            5 1XE5201   0.0000
   105 H5B2       -19.9713   -11.6405  -142.1604 H            5 1XE5201   0.0000
   106 HCP1       -25.6102   -14.0079  -142.6211 H            5 1XE5201   0.0000
   107 HCP2       -25.4571   -12.5347  -141.9335 H            5 1XE5201   0.0000
   108 HDP1       -28.8324   -12.5706  -143.1864 H            5 1XE5201   0.0000
   109 HDP2       -27.4081   -11.7820  -143.3136 H            5 1XE5201   0.0000
   110 HDP3       -27.5678   -13.2845  -143.9331 H            5 1XE5201   0.0000
   111 HEP1       -29.0850   -14.4749  -141.8434 H            5 1XE5201   0.0000
   112 HEP2       -27.8000   -15.1847  -142.5586 H            5 1XE5201   0.0000
   113 HEP3       -27.8503   -15.0352  -140.9333 H            5 1XE5201   0.0000
   114 HAP        -27.2406   -12.5291  -139.9424 H            5 1XE5201   0.0000
   115 H38        -28.0983   -10.4430  -140.3031 H            5 1XE5201   0.0000
   116 H8P        -30.2084   -11.7622  -141.8488 H            5 1XE5201   0.0000
   117 H7P1       -32.1475   -11.6232  -140.1367 H            5 1XE5201   0.0000
   118 H7P2       -31.8972   -13.2349  -140.0546 H            5 1XE5201   0.0000
   119 H6P1       -32.6205   -11.7720  -142.3835 H            5 1XE5201   0.0000
   120 H6P2       -33.5967   -12.7814  -141.5500 H            5 1XE5201   0.0000
   121 H4P        -31.2725   -12.6234  -144.3268 H            5 1XE5201   0.0000
   122 H3P1       -30.9911   -15.4992  -144.1981 H            5 1XE5201   0.0000
   123 H3P2       -30.3792   -14.5452  -145.3737 H            5 1XE5201   0.0000
   124 H2P1       -33.0662   -14.5969  -145.5917 H            5 1XE5201   0.0000
   125 H2P2       -32.5163   -16.1319  -145.5010 H            5 1XE5201   0.0000
   126 H49        -30.9457   -17.1612  -147.8311 H            5 1XE5201   0.0000
   127 H50        -31.8794   -16.7426  -149.1037 H            5 1XE5201   0.0000
   128 H51        -34.0026   -17.9212  -149.4884 H            5 1XE5201   0.0000
@<TRIPOS>BOND
     1    1    2       1
     2    2    5       1
     3    2    3       1
     4    5    6       1
     5    3    4       2
     6   96  126       1
     7   96  127       1
     8    2    7       1
     9    3   11      am
    10    5    8       1
    11    5    9       1
    12    6   10       1
    13   11   12       1
    14   12   15       1
    15   12   13       1
    16   13   14       2
    17   15   20       1
    18   11   16       1
    19   12   17       1
    20   13   21      am
    21   15   18       1
    22   15   19       1
    23   21   22       1
    24   22   25       1
    25   22   23       1
    26   25   26       1
    27   23   24       2
    28   26   31       1
    29   21   27       1
    30   22   28       1
    31   23   32      am
    32   25   29       1
    33   25   30       1
    34   32   33       1
    35   33   36       1
    36   33   34       1
    37   36   37       1
    38   37   38       1
    39   38   39      ar
    40   38   40      ar
    41   34   35       2
    42   37   47       1
    43   32   41       1
    44   33   42       1
    45   34   43       1
    46   36   44       1
    47   36   45       1
    48   37   46       1
    49    1   97      am
    50   48   49      ar
    51   48   53      ar
    52   49   50      ar
    53   50   51      ar
    54   51   52      ar
    55   51   57       1
    56   52   53      ar
    57   52   55       1
    58   53   54       1
    59   55   56       2
    60   56   57       1
    61   57   58       1
    62   58   59       2
    63   58   68       1
    64   59   60       1
    65   59   61       1
    66   61   62       1
    67   61   67       2
    68   62   63       1
    69   63   64      ar
    70   63   65      ar
    71   63   66      ar
    72   67   68       1
    73   67   69       1
    74   69   70       1
    75   70   71       1
    76   71   72      ar
    77   71   73      ar
    78   71   74       1
    79   74   75       1
    80   75   76      ar
    81   75   77      ar
    82   75   78       1
    83   78   80       1
    84   79   80       1
    85   79   81       1
    86   79   82       1
    87   79   83       1
    88   83   84       1
    89   83   85       1
    90   85   86       2
    91   85   87      am
    92   87   88       1
    93   88   89       1
    94   89   90       1
    95   90   91       2
    96   90   92      am
    97   92   93       1
    98   93   94       1
    99   94   95       1
   100   95   96       1
   101   96   97       1
   102   97   98       2
   103   49   99       1
   104   54  100       1
   105   54  101       1
   106   56  102       1
   107   60  103       1
   108    1  128       1
   109   94  125       1
   110   69  104       1
   111   69  105       1
   112   94  124       1
   113   93  123       1
   114   80  106       1
   115   80  107       1
   116   81  108       1
   117   81  109       1
   118   81  110       1
   119   82  111       1
   120   82  112       1
   121   82  113       1
   122   83  114       1
   123   84  115       1
   124   87  116       1
   125   88  117       1
   126   88  118       1
   127   89  119       1
   128   89  120       1
   129   92  121       1
   130   93  122       1
@<TRIPOS>SUBSTRUCTURE
     1 SER5122     1 RESIDUE           4 K     SER     0 **** SER K5122
     2 ALA5123    11 RESIDUE           4 K     ALA     0 **** ALA K5123
     3 SER5124    21 RESIDUE           4 K     SER     0 **** SER K5124
     4 GLU5125    32 RESIDUE           4 K     GLU     0 **** GLU K5125
     5 1XE5201    48 GROUP             4 K     1XE     0 **** 1XE K5201
