@<TRIPOS>MOLECULE
4k9d_NAD_2_ligand
   70    74     1     0     0
SMALL
NO_CHARGES


@<TRIPOS>ATOM
     1 PA          52.0040    76.5750    56.1810 P.3          1 NAD401   0.0000
     2 O1A         51.0830    76.6890    57.3750 O.co2        1 NAD401   0.0000
     3 O2A         51.6100    75.8320    54.9250 O.co2        1 NAD401  -1.0000
     4 O5B         53.4350    76.1290    56.7180 O.3          1 NAD401   0.0000
     5 C5B         53.8990    76.5220    58.0210 C.3          1 NAD401   0.0000
     6 C4B         54.7000    75.3630    58.6010 C.3          1 NAD401   0.0000
     7 O4B         55.6430    75.7760    59.6060 O.3          1 NAD401   0.0000
     8 C3B         53.7920    74.2930    59.2140 C.3          1 NAD401   0.0000
     9 O3B         54.1040    73.0550    58.5830 O.3          1 NAD401   0.0000
    10 C2B         54.2260    74.2110    60.6630 C.3          1 NAD401   0.0000
    11 O2B         54.1770    72.8650    61.1650 O.3          1 NAD401   0.0000
    12 C1B         55.6440    74.7600    60.6250 C.3          1 NAD401   0.0000
    13 N9A         55.9590    75.3300    61.9410 N.pl3        1 NAD401   0.0000
    14 C8A         55.0610    75.9340    62.7530 C.2          1 NAD401   0.0000
    15 N7A         55.6520    76.3380    63.9010 N.2          1 NAD401   0.0000
    16 C5A         56.9530    75.9860    63.8200 C.ar         1 NAD401   0.0000
    17 C6A         58.1250    76.1270    64.6900 C.ar         1 NAD401   0.0000
    18 N6A         58.0040    76.7320    65.8950 N.pl3        1 NAD401   0.0000
    19 N1A         59.3030    75.6350    64.2460 N.ar         1 NAD401   0.0000
    20 C2A         59.4280    75.0320    63.0450 C.ar         1 NAD401   0.0000
    21 N3A         58.3930    74.8610    62.1950 N.ar         1 NAD401   0.0000
    22 C4A         57.1540    75.3160    62.5260 C.ar         1 NAD401   0.0000
    23 O3          52.2620    78.1140    55.7570 O.3          1 NAD401   0.0000
    24 PN          52.9070    78.5060    54.3490 P.3          1 NAD401   0.0000
    25 O1N         51.8040    78.8250    53.3550 O.co2        1 NAD401   0.0000
    26 O2N         54.0110    77.5280    54.0080 O.co2        1 NAD401  -1.0000
    27 O5D         53.6120    79.9210    54.7420 O.3          1 NAD401   0.0000
    28 C5D         54.8860    79.9700    55.3800 C.3          1 NAD401   0.0000
    29 C4D         55.4260    81.3960    55.3060 C.3          1 NAD401   0.0000
    30 O4D         55.6420    81.6940    53.9290 O.3          1 NAD401   0.0000
    31 C3D         54.4080    82.4110    55.8040 C.3          1 NAD401   0.0000
    32 O3D         55.1360    83.4650    56.4320 O.3          1 NAD401   0.0000
    33 C2D         53.7460    82.9300    54.5430 C.3          1 NAD401   0.0000
    34 O2D         53.2090    84.2480    54.6910 O.3          1 NAD401   0.0000
    35 C1D         54.8860    82.8570    53.5430 C.3          1 NAD401   0.0000
    36 N1N         54.4420    82.7730    52.1380 N.ar         1 NAD401   1.0000
    37 C2N         53.4280    81.9550    51.7850 C.ar         1 NAD401   0.0000
    38 C3N         52.9960    81.8690    50.4540 C.ar         1 NAD401   0.0000
    39 C7N         51.8620    80.9640    50.0520 C.2          1 NAD401   0.0000
    40 O7N         51.1700    81.2740    49.0760 O.2          1 NAD401   0.0000
    41 N7N         51.6460    79.8510    50.7730 N.am         1 NAD401   0.0000
    42 C4N         53.6440    82.6350    49.4860 C.ar         1 NAD401   0.0000
    43 C5N         54.6990    83.4540    49.8720 C.ar         1 NAD401   0.0000
    44 C6N         55.0820    83.5090    51.2100 C.ar         1 NAD401   0.0000
    45 H5B1        53.1188    76.7257    58.6125 H            1 NAD401   0.0000
    46 H5B2        54.4800    77.3323    57.9448 H            1 NAD401   0.0000
    47 H4B         55.2127    74.9397    57.8541 H            1 NAD401   0.0000
    48 H3B         52.8237    74.5263    59.1248 H            1 NAD401   0.0000
    49 H5          55.0654    72.8318    58.7440 H            1 NAD401   0.0000
    50 H2B         53.6479    74.8034    61.2241 H            1 NAD401   0.0000
    51 H7          55.0574    72.4179    61.0067 H            1 NAD401   0.0000
    52 H1B         56.2929    74.0350    60.3943 H            1 NAD401   0.0000
    53 H8A         54.0938    76.0639    62.5347 H            1 NAD401   0.0000
    54 H6A1        58.8030    76.8284    66.4886 H            1 NAD401   0.0000
    55 H6A2        57.1156    77.0825    66.1915 H            1 NAD401   0.0000
    56 H2A         60.3294    74.6961    62.7719 H            1 NAD401   0.0000
    57 H5D1        55.5171    79.3483    54.9162 H            1 NAD401   0.0000
    58 H5D2        54.7920    79.6966    56.3373 H            1 NAD401   0.0000
    59 H4D         56.2801    81.4747    55.8201 H            1 NAD401   0.0000
    60 H3D         53.7449    81.9960    56.4270 H            1 NAD401   0.0000
    61 H17         55.9813    83.0999    56.8221 H            1 NAD401   0.0000
    62 H2D         53.0184    82.3025    54.2658 H            1 NAD401   0.0000
    63 H19         52.2618    84.1886    55.0062 H            1 NAD401   0.0000
    64 H1D         55.4624    83.6670    53.6513 H            1 NAD401   0.0000
    65 H2N         52.9772    81.4009    52.4848 H            1 NAD401   0.0000
    66 H7N1        50.8993    79.2330    50.5270 H            1 NAD401   0.0000
    67 H7N2        52.2319    79.6406    51.5556 H            1 NAD401   0.0000
    68 H4N         53.3546    82.5960    48.5296 H            1 NAD401   0.0000
    69 H5N         55.1822    84.0029    49.1899 H            1 NAD401   0.0000
    70 H6N         55.8399    84.1010    51.4841 H            1 NAD401   0.0000
@<TRIPOS>BOND
     1    1    2      ar
     2    1    3      ar
     3    1    4       1
     4    1   23       1
     5    4    5       1
     6    5    6       1
     7    6    7       1
     8    6    8       1
     9    7   12       1
    10    8    9       1
    11    8   10       1
    12   10   11       1
    13   10   12       1
    14   12   13       1
    15   13   14       1
    16   13   22       1
    17   14   15       2
    18   15   16       1
    19   16   17      ar
    20   16   22      ar
    21   17   18       1
    22   17   19      ar
    23   19   20      ar
    24   20   21      ar
    25   21   22      ar
    26   23   24       1
    27   24   25      ar
    28   24   26      ar
    29   24   27       1
    30   27   28       1
    31   28   29       1
    32   29   30       1
    33   29   31       1
    34   30   35       1
    35   31   32       1
    36   31   33       1
    37   33   34       1
    38   33   35       1
    39   35   36       1
    40   36   37      ar
    41   36   44      ar
    42   37   38      ar
    43   38   39       1
    44   38   42      ar
    45   39   40       2
    46   39   41      am
    47   42   43      ar
    48   43   44      ar
    49   44   70       1
    50    5   45       1
    51    5   46       1
    52    6   47       1
    53    8   48       1
    54    9   49       1
    55   10   50       1
    56   11   51       1
    57   12   52       1
    58   14   53       1
    59   18   54       1
    60   18   55       1
    61   20   56       1
    62   43   69       1
    63   28   57       1
    64   28   58       1
    65   29   59       1
    66   31   60       1
    67   32   61       1
    68   33   62       1
    69   34   63       1
    70   35   64       1
    71   37   65       1
    72   41   66       1
    73   41   67       1
    74   42   68       1
@<TRIPOS>SUBSTRUCTURE
     1 NAD401      1 GROUP             4 B     NAD     0 **** NAD B 401
