@<TRIPOS>MOLECULE
4qi5_FAD_1_ligand
   84    89     1     0     0
SMALL
NO_CHARGES


@<TRIPOS>ATOM
     1 PA          84.9430   -18.7060   -20.4740 P.3          1 FAD901   0.0000
     2 O1A         86.0040   -17.8020   -19.8890 O.co2        1 FAD901   0.0000
     3 O2A         84.8120   -18.3920   -21.9310 O.co2        1 FAD901  -1.0000
     4 O5B         83.5240   -18.4400   -19.7690 O.3          1 FAD901   0.0000
     5 C5B         83.4420   -18.2850   -18.3650 C.3          1 FAD901   0.0000
     6 C4B         82.2630   -17.4080   -18.1180 C.3          1 FAD901   0.0000
     7 O4B         81.7650   -17.5770   -16.7770 O.3          1 FAD901   0.0000
     8 C3B         82.5810   -15.9460   -18.2680 C.3          1 FAD901   0.0000
     9 O3B         81.4970   -15.3590   -18.9690 O.3          1 FAD901   0.0000
    10 C2B         82.6950   -15.4520   -16.8660 C.3          1 FAD901   0.0000
    11 O2B         82.3570   -14.0640   -16.7470 O.3          1 FAD901   0.0000
    12 C1B         81.7070   -16.2860   -16.1320 C.3          1 FAD901   0.0000
    13 N9A         82.0630   -16.5920   -14.8010 N.pl3        1 FAD901   0.0000
    14 C8A         83.2580   -16.9880   -14.3270 C.2          1 FAD901   0.0000
    15 N7A         83.1560   -17.2390   -12.9910 N.2          1 FAD901   0.0000
    16 C5A         81.8490   -17.0010   -12.5950 C.ar         1 FAD901   0.0000
    17 C6A         81.1210   -17.0710   -11.3680 C.ar         1 FAD901   0.0000
    18 N6A         81.7490   -17.4690   -10.1480 N.pl3        1 FAD901   0.0000
    19 N1A         79.8050   -16.7430   -11.3930 N.ar         1 FAD901   0.0000
    20 C2A         79.1760   -16.3790   -12.5130 C.ar         1 FAD901   0.0000
    21 N3A         79.8170   -16.3030   -13.6800 N.ar         1 FAD901   0.0000
    22 C4A         81.1440   -16.5980   -13.7550 C.ar         1 FAD901   0.0000
    23 N1          90.1130   -19.3320   -28.4260 N.2          1 FAD901   0.0000
    24 C2          89.9140   -19.5910   -29.7070 C.2          1 FAD901   0.0000
    25 O2          89.3390   -20.8070   -30.0810 O.2          1 FAD901   0.0000
    26 N3          89.9830   -18.6220   -30.6170 N.pl3        1 FAD901   0.0000
    27 C4          90.7460   -17.5300   -30.3720 C.2          1 FAD901   0.0000
    28 O4          91.0100   -16.6420   -31.4310 O.2          1 FAD901   0.0000
    29 C4X         91.1970   -17.2860   -29.0150 C.2          1 FAD901   0.0000
    30 N5          91.8420   -16.1450   -28.5970 N.2          1 FAD901   0.0000
    31 C5X         92.0050   -15.8550   -27.2510 C.ar         1 FAD901   0.0000
    32 C6          92.3560   -14.5220   -26.8480 C.ar         1 FAD901   0.0000
    33 C7          92.1110   -14.0720   -25.5440 C.ar         1 FAD901   0.0000
    34 C7M         91.7970   -12.6040   -25.3170 C.3          1 FAD901   0.0000
    35 C8          91.6390   -15.0160   -24.5860 C.ar         1 FAD901   0.0000
    36 C8M         91.2750   -14.5440   -23.1470 C.3          1 FAD901   0.0000
    37 C9          91.0800   -16.2220   -25.0460 C.ar         1 FAD901   0.0000
    38 C9A         91.4660   -16.7410   -26.2980 C.ar         1 FAD901   0.0000
    39 N10         90.9370   -17.9590   -26.6940 N.pl3        1 FAD901   0.0000
    40 C10         90.7530   -18.1840   -28.0370 C.2          1 FAD901   0.0000
    41 C1'         90.6360   -19.0420   -25.7370 C.3          1 FAD901   0.0000
    42 C2'         89.2210   -18.9400   -25.1650 C.3          1 FAD901   0.0000
    43 O2'         88.8050   -17.6040   -24.9360 O.3          1 FAD901   0.0000
    44 C3'         88.8590   -19.8850   -24.0040 C.3          1 FAD901   0.0000
    45 O3'         89.5930   -21.0890   -24.0190 O.3          1 FAD901   0.0000
    46 C4'         87.3770   -20.1930   -23.9240 C.3          1 FAD901   0.0000
    47 O4'         86.6150   -19.0400   -24.2650 O.3          1 FAD901   0.0000
    48 C5'         87.0890   -20.6220   -22.4990 C.3          1 FAD901   0.0000
    49 O5'         85.8650   -21.3330   -22.4490 O.3          1 FAD901   0.0000
    50 P           85.1820   -21.5480   -21.0370 P.3          1 FAD901   0.0000
    51 O1P         83.7240   -21.8920   -21.2620 O.co2        1 FAD901   0.0000
    52 O2P         85.8880   -22.6580   -20.3090 O.co2        1 FAD901  -1.0000
    53 O3P         85.3710   -20.2140   -20.1610 O.3          1 FAD901   0.0000
    54 H5B1        84.2741   -17.8561   -18.0134 H            1 FAD901   0.0000
    55 H5B2        83.3130   -19.1732   -17.9241 H            1 FAD901   0.0000
    56 H4B         81.5393   -17.6495   -18.7645 H            1 FAD901   0.0000
    57 H3B         83.4397   -15.8160   -18.7638 H            1 FAD901   0.0000
    58 H5          80.6540   -15.4866   -18.4465 H            1 FAD901   0.0000
    59 H2B         83.6166   -15.6160   -16.5143 H            1 FAD901   0.0000
    60 H7          81.4139   -13.9236   -17.0483 H            1 FAD901   0.0000
    61 H1B         80.7887   -15.8935   -16.1831 H            1 FAD901   0.0000
    62 H8A         84.0920   -17.0835   -14.8705 H            1 FAD901   0.0000
    63 H6A1        81.2172   -17.5100    -9.3021 H            1 FAD901   0.0000
    64 H6A2        82.7203   -17.7066   -10.1400 H            1 FAD901   0.0000
    65 H2A         78.2014   -16.1582   -12.4759 H            1 FAD901   0.0000
    66 H13         89.4754   -18.6996   -31.4751 H            1 FAD901   0.0000
    67 H14         92.7824   -13.9047   -27.5092 H            1 FAD901   0.0000
    68 H7M1        91.6478   -12.4420   -24.3416 H            1 FAD901   0.0000
    69 H7M2        92.5640   -12.0462   -25.6341 H            1 FAD901   0.0000
    70 H7M3        90.9724   -12.3570   -25.8259 H            1 FAD901   0.0000
    71 H8M1        90.9636   -15.3268   -22.6082 H            1 FAD901   0.0000
    72 H8M2        92.0816   -14.1412   -22.7143 H            1 FAD901   0.0000
    73 H8M3        90.5462   -13.8610   -23.1946 H            1 FAD901   0.0000
    74 H21         90.4104   -16.7099   -24.4860 H            1 FAD901   0.0000
    75 H1'1        91.2911   -18.9952   -24.9829 H            1 FAD901   0.0000
    76 H1'2        90.7300   -19.9201   -26.2061 H            1 FAD901   0.0000
    77 H2'         88.6363   -19.2477   -25.9156 H            1 FAD901   0.0000
    78 H25         87.8768   -17.6030   -24.5639 H            1 FAD901   0.0000
    79 H3'         89.1013   -19.4095   -23.1583 H            1 FAD901   0.0000
    80 H27         89.7092   -21.4202   -23.0826 H            1 FAD901   0.0000
    81 H4'         87.1549   -20.9398   -24.5509 H            1 FAD901   0.0000
    82 H29         86.0332   -18.7846   -23.4928 H            1 FAD901   0.0000
    83 H5'1        87.0267   -19.8126   -21.9150 H            1 FAD901   0.0000
    84 H5'2        87.8286   -21.2114   -22.1740 H            1 FAD901   0.0000
@<TRIPOS>BOND
     1    1    2      ar
     2    1    3      ar
     3    1    4       1
     4    1   53       1
     5    4    5       1
     6    5    6       1
     7    6    7       1
     8    6    8       1
     9    7   12       1
    10    8    9       1
    11    8   10       1
    12   10   11       1
    13   10   12       1
    14   12   13       1
    15   13   14       1
    16   13   22       1
    17   14   15       2
    18   15   16       1
    19   16   17      ar
    20   16   22      ar
    21   17   18       1
    22   17   19      ar
    23   19   20      ar
    24   20   21      ar
    25   21   22      ar
    26   23   24       1
    27   23   40       2
    28   24   25       2
    29   24   26       1
    30   26   27       1
    31   27   28       2
    32   27   29       1
    33   29   30       2
    34   29   40       1
    35   30   31       1
    36   31   32      ar
    37   31   38      ar
    38   32   33      ar
    39   33   34       1
    40   33   35      ar
    41   35   36       1
    42   35   37      ar
    43   37   38      ar
    44   38   39       1
    45   39   40       1
    46   39   41       1
    47   41   42       1
    48   42   43       1
    49   42   44       1
    50   44   45       1
    51   44   46       1
    52   46   47       1
    53   46   48       1
    54   48   49       1
    55   49   50       1
    56   50   51      ar
    57   50   52      ar
    58   50   53       1
    59   48   84       1
    60    5   54       1
    61    5   55       1
    62    6   56       1
    63    8   57       1
    64    9   58       1
    65   10   59       1
    66   11   60       1
    67   12   61       1
    68   14   62       1
    69   18   63       1
    70   18   64       1
    71   20   65       1
    72   26   66       1
    73   32   67       1
    74   34   68       1
    75   34   69       1
    76   34   70       1
    77   36   71       1
    78   36   72       1
    79   36   73       1
    80   37   74       1
    81   41   75       1
    82   41   76       1
    83   42   77       1
    84   43   78       1
    85   44   79       1
    86   45   80       1
    87   46   81       1
    88   47   82       1
    89   48   83       1
@<TRIPOS>SUBSTRUCTURE
     1 FAD901      1 GROUP             4 A     FAD     0 **** FAD A 901
