@<TRIPOS>MOLECULE
2ag5_NAD_2_ligand
   70    74     1     0     0
SMALL
NO_CHARGES


@<TRIPOS>ATOM
     1 PA          40.2080     7.5930    51.9470 P.3          1 NAD1001   0.0000
     2 O1A         40.4740     9.0630    51.7410 O.co2        1 NAD1001   0.0000
     3 O2A         41.4170     6.6170    52.2140 O.co2        1 NAD1001  -1.0000
     4 O5B         39.0690     7.5110    53.1110 O.3          1 NAD1001   0.0000
     5 C5B         38.9330     6.3170    53.8730 C.3          1 NAD1001   0.0000
     6 C4B         37.6260     6.3680    54.6760 C.3          1 NAD1001   0.0000
     7 O4B         37.5080     5.1050    55.3530 O.3          1 NAD1001   0.0000
     8 C3B         37.5860     7.4720    55.7160 C.3          1 NAD1001   0.0000
     9 O3B         36.3610     8.1400    55.7100 O.3          1 NAD1001   0.0000
    10 C2B         37.7190     6.7260    57.0370 C.3          1 NAD1001   0.0000
    11 O2B         37.0090     7.3440    58.1050 O.3          1 NAD1001   0.0000
    12 C1B         37.1570     5.3340    56.6910 C.3          1 NAD1001   0.0000
    13 N9A         37.6520     4.2660    57.5760 N.pl3        1 NAD1001   0.0000
    14 C8A         38.9270     4.0970    58.0500 C.2          1 NAD1001   0.0000
    15 N7A         38.9470     3.0090    58.8130 N.2          1 NAD1001   0.0000
    16 C5A         37.7060     2.4650    58.8390 C.ar         1 NAD1001   0.0000
    17 C6A         37.1480     1.3740    59.5210 C.ar         1 NAD1001   0.0000
    18 N6A         37.7990     0.5210    60.3670 N.pl3        1 NAD1001   0.0000
    19 N1A         35.8320     1.1500    59.3090 N.ar         1 NAD1001   0.0000
    20 C2A         35.0580     1.9650    58.5120 C.ar         1 NAD1001   0.0000
    21 N3A         35.5630     3.0570    57.8560 N.ar         1 NAD1001   0.0000
    22 C4A         36.8860     3.2930    58.0500 C.ar         1 NAD1001   0.0000
    23 O3          39.2990     7.0570    50.7040 O.3          1 NAD1001   0.0000
    24 PN          39.8310     6.5210    49.2400 P.3          1 NAD1001   0.0000
    25 O1N         38.7690     6.7760    48.2250 O.co2        1 NAD1001   0.0000
    26 O2N         41.2350     7.0300    49.0520 O.co2        1 NAD1001  -1.0000
    27 O5D         40.0450     4.9370    49.5670 O.3          1 NAD1001   0.0000
    28 C5D         38.8740     4.0890    49.5450 C.3          1 NAD1001   0.0000
    29 C4D         39.1560     2.7350    48.9390 C.3          1 NAD1001   0.0000
    30 O4D         39.6270     2.9080    47.6180 O.3          1 NAD1001   0.0000
    31 C3D         40.1970     1.9370    49.7120 C.3          1 NAD1001   0.0000
    32 O3D         39.8880     0.5570    49.7020 O.3          1 NAD1001   0.0000
    33 C2D         41.4550     2.1360    48.8760 C.3          1 NAD1001   0.0000
    34 O2D         42.3710     1.0550    49.0630 O.3          1 NAD1001   0.0000
    35 C1D         40.8150     2.1890    47.4740 C.3          1 NAD1001   0.0000
    36 N1N         41.6590     2.7820    46.4280 N.ar         1 NAD1001   1.0000
    37 C2N         42.0510     4.1150    46.4840 C.ar         1 NAD1001   0.0000
    38 C3N         42.8890     4.6790    45.4690 C.ar         1 NAD1001   0.0000
    39 C7N         43.3890     6.1120    45.5150 C.2          1 NAD1001   0.0000
    40 O7N         44.5720     6.5520    44.8020 O.2          1 NAD1001   0.0000
    41 N7N         42.6990     6.9560    46.2920 N.am         1 NAD1001   0.0000
    42 C4N         43.3460     3.8240    44.4400 C.ar         1 NAD1001   0.0000
    43 C5N         42.9620     2.4740    44.4140 C.ar         1 NAD1001   0.0000
    44 C6N         42.0930     1.9450    45.3870 C.ar         1 NAD1001   0.0000
    45 H5B1        39.7068     6.2324    54.5008 H            1 NAD1001   0.0000
    46 H5B2        38.9154     5.5291    53.2575 H            1 NAD1001   0.0000
    47 H4B         36.8563     6.4787    54.0472 H            1 NAD1001   0.0000
    48 H3B         38.3436     8.1121    55.5882 H            1 NAD1001   0.0000
    49 H5          35.6267     7.4914    55.9102 H            1 NAD1001   0.0000
    50 H2B         38.6857     6.6456    57.2801 H            1 NAD1001   0.0000
    51 H7          36.0793     6.9776    58.1433 H            1 NAD1001   0.0000
    52 H1B         36.1598     5.3670    56.7579 H            1 NAD1001   0.0000
    53 H8A         39.7080     4.6904    57.8552 H            1 NAD1001   0.0000
    54 H6A1        37.3005    -0.2286    60.8024 H            1 NAD1001   0.0000
    55 H6A2        38.7740     0.6463    60.5507 H            1 NAD1001   0.0000
    56 H2A         34.0868     1.7506    58.4079 H            1 NAD1001   0.0000
    57 H5D1        38.1612     4.5394    49.0074 H            1 NAD1001   0.0000
    58 H5D2        38.5528     3.9605    50.4832 H            1 NAD1001   0.0000
    59 H4D         38.3046     2.2113    48.9111 H            1 NAD1001   0.0000
    60 H3D         40.3126     2.2836    50.6429 H            1 NAD1001   0.0000
    61 H17         38.9938     0.4126    50.1257 H            1 NAD1001   0.0000
    62 H2D         41.8904     3.0086    49.0974 H            1 NAD1001   0.0000
    63 H19         42.9866     1.2672    49.8220 H            1 NAD1001   0.0000
    64 H1D         40.5849     1.2555    47.1991 H            1 NAD1001   0.0000
    65 H2N         41.7434     4.6878    47.2438 H            1 NAD1001   0.0000
    66 H7N1        42.9798     7.9131    46.3632 H            1 NAD1001   0.0000
    67 H7N2        41.9028     6.6293    46.8012 H            1 NAD1001   0.0000
    68 H4N         43.9468     4.1833    43.7259 H            1 NAD1001   0.0000
    69 H5N         43.3119     1.8776    43.6916 H            1 NAD1001   0.0000
    70 H6N         41.7910     0.9930    45.3380 H            1 NAD1001   0.0000
@<TRIPOS>BOND
     1    1    2      ar
     2    1    3      ar
     3    1    4       1
     4    1   23       1
     5    4    5       1
     6    5    6       1
     7    6    7       1
     8    6    8       1
     9    7   12       1
    10    8    9       1
    11    8   10       1
    12   10   11       1
    13   10   12       1
    14   12   13       1
    15   13   14       1
    16   13   22       1
    17   14   15       2
    18   15   16       1
    19   16   17      ar
    20   16   22      ar
    21   17   18       1
    22   17   19      ar
    23   19   20      ar
    24   20   21      ar
    25   21   22      ar
    26   23   24       1
    27   24   25      ar
    28   24   26      ar
    29   24   27       1
    30   27   28       1
    31   28   29       1
    32   29   30       1
    33   29   31       1
    34   30   35       1
    35   31   32       1
    36   31   33       1
    37   33   34       1
    38   33   35       1
    39   35   36       1
    40   36   37      ar
    41   36   44      ar
    42   37   38      ar
    43   38   39       1
    44   38   42      ar
    45   39   40       2
    46   39   41      am
    47   42   43      ar
    48   43   44      ar
    49   44   70       1
    50    5   45       1
    51    5   46       1
    52    6   47       1
    53    8   48       1
    54    9   49       1
    55   10   50       1
    56   11   51       1
    57   12   52       1
    58   14   53       1
    59   18   54       1
    60   18   55       1
    61   20   56       1
    62   43   69       1
    63   28   57       1
    64   28   58       1
    65   29   59       1
    66   31   60       1
    67   32   61       1
    68   33   62       1
    69   34   63       1
    70   35   64       1
    71   37   65       1
    72   41   66       1
    73   41   67       1
    74   42   68       1
@<TRIPOS>SUBSTRUCTURE
     1 NAD1001     1 GROUP             4 B     NAD     0 **** NAD B1001
