@<TRIPOS>MOLECULE
3s79_ASD_1_ligand
   47    50     1     0     0
SMALL
NO_CHARGES


@<TRIPOS>ATOM
     1 C1          87.3400    51.7300    45.6140 C.3          1 ASD601   0.0000
     2 C10         86.0090    52.3980    46.0010 C.3          1 ASD601   0.0000
     3 C11         86.5100    54.2920    44.3580 C.3          1 ASD601   0.0000
     4 C12         86.6400    55.7970    44.1470 C.3          1 ASD601   0.0000
     5 C13         85.3400    56.4530    44.5840 C.3          1 ASD601   0.0000
     6 C14         85.1530    56.1810    46.0770 C.3          1 ASD601   0.0000
     7 C15         84.1090    57.2020    46.5420 C.3          1 ASD601   0.0000
     8 C16         84.5440    58.4850    45.8190 C.3          1 ASD601   0.0000
     9 C17         85.2940    57.9560    44.6070 C.2          1 ASD601   0.0000
    10 C18         84.1710    55.9840    43.7140 C.3          1 ASD601   0.0000
    11 C19         84.8800    51.8490    45.1230 C.3          1 ASD601   0.0000
    12 C2          87.5210    50.3430    46.2160 C.3          1 ASD601   0.0000
    13 C3          87.3490    50.4770    47.7130 C.2          1 ASD601   0.0000
    14 C4          86.3520    51.2460    48.2250 C.2          1 ASD601   0.0000
    15 C5          85.6770    52.1510    47.4770 C.2          1 ASD601   0.0000
    16 C6          84.5760    52.9500    48.1370 C.3          1 ASD601   0.0000
    17 C7          84.8190    54.4380    47.8840 C.3          1 ASD601   0.0000
    18 C8          84.9680    54.7040    46.3900 C.3          1 ASD601   0.0000
    19 C9          86.1620    53.9180    45.8110 C.3          1 ASD601   0.0000
    20 O1          88.1270    49.8800    48.4470 O.2          1 ASD601   0.0000
    21 O2          85.7870    58.6710    43.7490 O.2          1 ASD601   0.0000
    22 H1          88.0896    52.3121    45.9290 H            1 ASD601   0.0000
    23 H2          87.3761    51.6499    44.6179 H            1 ASD601   0.0000
    24 H3          87.3789    53.8598    44.1167 H            1 ASD601   0.0000
    25 H4          85.7881    53.9469    43.7581 H            1 ASD601   0.0000
    26 H5          86.8080    55.9899    43.1803 H            1 ASD601   0.0000
    27 H6          87.3984    56.1511    44.6943 H            1 ASD601   0.0000
    28 H7          86.0117    56.4484    46.5141 H            1 ASD601   0.0000
    29 H8          84.1378    57.3203    47.5346 H            1 ASD601   0.0000
    30 H9          83.1881    56.9272    46.2656 H            1 ASD601   0.0000
    31 H10         85.1420    59.0390    46.3982 H            1 ASD601   0.0000
    32 H11         83.7513    59.0282    45.5424 H            1 ASD601   0.0000
    33 H12         83.3288    56.4280    44.0198 H            1 ASD601   0.0000
    34 H13         84.3477    56.2256    42.7598 H            1 ASD601   0.0000
    35 H14         84.0729    54.9920    43.7940 H            1 ASD601   0.0000
    36 H15         84.0172    52.2857    45.3778 H            1 ASD601   0.0000
    37 H16         85.0806    52.0423    44.1626 H            1 ASD601   0.0000
    38 H17         84.8053    50.8606    45.2555 H            1 ASD601   0.0000
    39 H18         88.4349    49.9954    46.0062 H            1 ASD601   0.0000
    40 H19         86.8336    49.7174    45.8471 H            1 ASD601   0.0000
    41 H20         86.1081    51.1397    49.1889 H            1 ASD601   0.0000
    42 H21         84.5773    52.7729    49.1212 H            1 ASD601   0.0000
    43 H22         83.6922    52.6846    47.7517 H            1 ASD601   0.0000
    44 H23         85.6552    54.7202    48.3542 H            1 ASD601   0.0000
    45 H24         84.0447    54.9633    48.2369 H            1 ASD601   0.0000
    46 H25         84.1361    54.3898    45.9325 H            1 ASD601   0.0000
    47 H26         86.9553    54.1834    46.3589 H            1 ASD601   0.0000
@<TRIPOS>BOND
     1    1    2       1
     2    1   12       1
     3    2   11       1
     4    2   15       1
     5    2   19       1
     6    3    4       1
     7    3   19       1
     8    4    5       1
     9    5    6       1
    10    5    9       1
    11    5   10       1
    12    6    7       1
    13    6   18       1
    14    7    8       1
    15    8    9       1
    16    9   21       2
    17   12   13       1
    18   13   14       1
    19   13   20       2
    20   14   15       2
    21   15   16       1
    22   16   17       1
    23   17   18       1
    24   18   19       1
    25    1   22       1
    26    1   23       1
    27    3   24       1
    28    3   25       1
    29    4   26       1
    30    4   27       1
    31    6   28       1
    32    7   29       1
    33    7   30       1
    34    8   31       1
    35    8   32       1
    36   10   33       1
    37   10   34       1
    38   10   35       1
    39   11   36       1
    40   11   37       1
    41   11   38       1
    42   12   39       1
    43   12   40       1
    44   14   41       1
    45   16   42       1
    46   16   43       1
    47   17   44       1
    48   17   45       1
    49   18   46       1
    50   19   47       1
@<TRIPOS>SUBSTRUCTURE
     1 ASD601      1 GROUP             4 A     ASD     0 **** ASD A 601
