@<TRIPOS>MOLECULE
1kmq_GNP_1_ligand
   45    47     1     0     0
SMALL
NO_CHARGES


@<TRIPOS>ATOM
     1 PG           8.6160     7.2950    -1.5330 P.3          1 GNP300   0.0000
     2 O1G          8.0450     8.3960    -0.7270 O.co2        1 GNP300   0.0000
     3 O2G          7.7390     6.9380    -2.6850 O.co2        1 GNP300  -1.0000
     4 O3G          9.0860     6.1160    -0.7040 O.co2        1 GNP300  -1.0000
     5 N3B          9.9520     7.8930    -2.2140 N.3          1 GNP300   0.0000
     6 PB          11.3710     8.3320    -1.5920 P.3          1 GNP300   0.0000
     7 O1B         11.2720     9.7220    -1.0820 O.co2        1 GNP300   0.0000
     8 O2B         11.7630     7.2700    -0.6250 O.co2        1 GNP300  -1.0000
     9 O3A         12.4190     8.3270    -2.7520 O.3          1 GNP300   0.0000
    10 PA          13.6150     7.3760    -3.0900 P.3          1 GNP300   0.0000
    11 O1A         14.6390     7.4940    -2.0370 O.co2        1 GNP300   0.0000
    12 O2A         13.1050     6.0150    -3.3610 O.co2        1 GNP300  -1.0000
    13 O5'         14.1810     8.0320    -4.4140 O.3          1 GNP300   0.0000
    14 C5'         13.3340     8.2470    -5.5410 C.3          1 GNP300   0.0000
    15 C4'         14.1600     8.3150    -6.8110 C.3          1 GNP300   0.0000
    16 O4'         15.1170     9.4000    -6.7210 O.3          1 GNP300   0.0000
    17 C3'         14.9460     7.0450    -7.0790 C.3          1 GNP300   0.0000
    18 O3'         14.9120     6.8590    -8.4970 O.3          1 GNP300   0.0000
    19 C2'         16.3380     7.4620    -6.6130 C.3          1 GNP300   0.0000
    20 O2'         17.3720     6.8120    -7.3410 O.3          1 GNP300   0.0000
    21 C1'         16.4420     8.9650    -6.8880 C.3          1 GNP300   0.0000
    22 N9          17.3230     9.6010    -5.9160 N.pl3        1 GNP300   0.0000
    23 C8          17.3220     9.4290    -4.5520 C.2          1 GNP300   0.0000
    24 N7          18.2530    10.1640    -3.9970 N.2          1 GNP300   0.0000
    25 C5          18.8830    10.8300    -5.0330 C.2          1 GNP300   0.0000
    26 C6          19.9690    11.7300    -4.9940 C.2          1 GNP300   0.0000
    27 O6          20.6100    12.1230    -4.0080 O.2          1 GNP300   0.0000
    28 N1          20.2800    12.1790    -6.2760 N.pl3        1 GNP300   0.0000
    29 C2          19.6640    11.8220    -7.4510 C.2          1 GNP300   0.0000
    30 N2          20.1090    12.3290    -8.6180 N.pl3        1 GNP300   0.0000
    31 N3          18.6440    10.9740    -7.4670 N.2          1 GNP300   0.0000
    32 C4          18.3190    10.4910    -6.2450 C.2          1 GNP300   0.0000
    33 H3B         10.1970     7.2043    -2.8964 H            1 GNP300   0.0000
    34 H5'1        12.8386     9.1076    -5.4226 H            1 GNP300   0.0000
    35 H5'2        12.6806     7.4933    -5.6118 H            1 GNP300   0.0000
    36 H4'         13.5496     8.4862    -7.5844 H            1 GNP300   0.0000
    37 H3'         14.5901     6.2568    -6.5770 H            1 GNP300   0.0000
    38 H6          15.4178     6.0303    -8.7367 H            1 GNP300   0.0000
    39 H2'         16.4413     7.2832    -5.6345 H            1 GNP300   0.0000
    40 H8          17.0538     6.6154    -8.2684 H            1 GNP300   0.0000
    41 H1'         16.7584     9.1357    -7.8212 H            1 GNP300   0.0000
    42 H10         16.6980     8.8271    -4.0536 H            1 GNP300   0.0000
    43 H11         21.0337    12.8322    -6.3487 H            1 GNP300   0.0000
    44 H12         19.6645    12.0727    -9.4764 H            1 GNP300   0.0000
    45 H13         20.8836    12.9614    -8.6254 H            1 GNP300   0.0000
@<TRIPOS>BOND
     1    1    2      ar
     2    1    3      ar
     3    1    4      ar
     4    1    5       1
     5    5    6       1
     6    6    7      ar
     7    6    8      ar
     8    6    9       1
     9    9   10       1
    10   10   11      ar
    11   10   12      ar
    12   10   13       1
    13   13   14       1
    14   14   15       1
    15   15   16       1
    16   15   17       1
    17   16   21       1
    18   17   18       1
    19   17   19       1
    20   19   20       1
    21   19   21       1
    22   21   22       1
    23   22   23       1
    24   22   32       1
    25   23   24       2
    26   24   25       1
    27   25   26       1
    28   25   32       2
    29   26   27       2
    30   26   28       1
    31   28   29       1
    32   29   30       1
    33   29   31       2
    34   31   32       1
    35   30   45       1
    36   30   44       1
    37    5   33       1
    38   28   43       1
    39   23   42       1
    40   14   34       1
    41   14   35       1
    42   15   36       1
    43   17   37       1
    44   18   38       1
    45   19   39       1
    46   20   40       1
    47   21   41       1
@<TRIPOS>SUBSTRUCTURE
     1 GNP300      1 GROUP             4 A     GNP     0 **** GNP A 300
