@<TRIPOS>MOLECULE
4jsr_1NQ_1_ligand
   59    62     1     0     0
SMALL
NO_CHARGES


@<TRIPOS>ATOM
     1 CAA         21.1630    54.2790    -6.4830 C.3          1 1NQ402   0.0000
     2 CAJ         21.3500    53.3760    -7.7050 C.3          1 1NQ402   0.0000
     3 NAS         21.9500    52.1010    -7.2860 N.am         1 1NQ402   0.0000
     4 CAX         22.1560    51.8070    -6.0050 C.2          1 1NQ402   0.0000
     5 OAD         21.8720    52.5560    -5.0720 O.2          1 1NQ402   0.0000
     6 CAZ         22.7890    50.4370    -5.7510 C.2          1 1NQ402   0.0000
     7 SAU         23.2900    49.8570    -4.2580 S.3          1 1NQ402   0.0000
     8 CAG         23.0320    49.5080    -6.6850 C.2          1 1NQ402   0.0000
     9 CAH         23.5990    48.3780    -6.2060 C.2          1 1NQ402   0.0000
    10 CBA         23.8160    48.3910    -4.8850 C.2          1 1NQ402   0.0000
    11 CAY         24.4430    47.2530    -4.0770 C.2          1 1NQ402   0.0000
    12 OAE         24.7330    47.4040    -2.8910 O.2          1 1NQ402   0.0000
    13 NAT         24.6380    46.1250    -4.7530 N.am         1 1NQ402   0.0000
    14 CAK         25.2300    44.9340    -4.1270 C.3          1 1NQ402   0.0000
    15 CAL         24.1200    44.0600    -3.5400 C.3          1 1NQ402   0.0000
    16 CBF         23.7960    44.4750    -2.1040 C.3          1 1NQ402   0.0000
    17 CAN         22.8210    43.4690    -1.4890 C.3          1 1NQ402   0.0000
    18 CAP         22.4780    43.8490    -0.0470 C.3          1 1NQ402   0.0000
    19 CAM         25.0840    44.5090    -1.2790 C.3          1 1NQ402   0.0000
    20 CAO         24.7990    44.9150     0.1690 C.3          1 1NQ402   0.0000
    21 NBG         23.7260    44.0560     0.7200 N.pl3        1 1NQ402   0.0000
    22 C6          23.8940    43.4400     1.9650 C.ar         1 1NQ402   0.0000
    23 N1          24.7080    43.9750     2.8840 N.ar         1 1NQ402   0.0000
    24 C2          24.8640    43.3910     4.0590 C.ar         1 1NQ402   0.0000
    25 N3          24.2340    42.2710     4.3740 N.ar         1 1NQ402   0.0000
    26 C4          23.3990    41.6660     3.5150 C.ar         1 1NQ402   0.0000
    27 CAI         22.6840    40.5300     3.6770 C.2          1 1NQ402   0.0000
    28 C5          23.2190    42.2670     2.2650 C.ar         1 1NQ402   0.0000
    29 SAV         22.1380    41.3090     1.4050 S.3          1 1NQ402   0.0000
    30 CBB         21.9360    40.1800     2.6250 C.2          1 1NQ402   0.0000
    31 CAW         21.0380    38.9440     2.5490 C.2          1 1NQ402   0.0000
    32 OAC         20.5150    38.6050     1.4890 O.2          1 1NQ402   0.0000
    33 NAB         20.8800    38.2920     3.6980 N.am         1 1NQ402   0.0000
    34 HAA1        20.7549    55.1461    -6.7686 H            1 1NQ402   0.0000
    35 HAA2        20.5607    53.8280    -5.8243 H            1 1NQ402   0.0000
    36 HAA3        22.0513    54.4527    -6.0579 H            1 1NQ402   0.0000
    37 HAJ1        21.9522    53.8271    -8.3636 H            1 1NQ402   0.0000
    38 HAJ2        20.4616    53.2024    -8.1301 H            1 1NQ402   0.0000
    39 HAS         22.2111    51.4349    -7.9847 H            1 1NQ402   0.0000
    40 HAG         22.8132    49.6389    -7.6519 H            1 1NQ402   0.0000
    41 HAH         23.8358    47.6000    -6.7879 H            1 1NQ402   0.0000
    42 HAT         24.3739    46.0855    -5.7167 H            1 1NQ402   0.0000
    43 HAK1        25.8530    45.2160    -3.3974 H            1 1NQ402   0.0000
    44 HAK2        25.7359    44.4130    -4.8144 H            1 1NQ402   0.0000
    45 HAL1        24.4184    43.1056    -3.5450 H            1 1NQ402   0.0000
    46 HAL2        23.2978    44.1552    -4.1012 H            1 1NQ402   0.0000
    47 HBF         23.3786    45.3837    -2.1066 H            1 1NQ402   0.0000
    48 HAN1        23.2397    42.5609    -1.4971 H            1 1NQ402   0.0000
    49 HAN2        21.9812    43.4537    -2.0317 H            1 1NQ402   0.0000
    50 HAP1        21.9465    43.1139     0.3738 H            1 1NQ402   0.0000
    51 HAP2        21.9411    44.6926    -0.0436 H            1 1NQ402   0.0000
    52 HAM1        25.7151    45.1697    -1.6855 H            1 1NQ402   0.0000
    53 HAM2        25.5016    43.6004    -1.2875 H            1 1NQ402   0.0000
    54 HAO1        24.5075    45.8712     0.1959 H            1 1NQ402   0.0000
    55 HAO2        25.6288    44.8040     0.7159 H            1 1NQ402   0.0000
    56 H23         25.4766    43.8081     4.7303 H            1 1NQ402   0.0000
    57 HAI         22.7123    39.9922     4.5196 H            1 1NQ402   0.0000
    58 HAB1        20.3076    37.4728     3.7334 H            1 1NQ402   0.0000
    59 HAB2        21.3337    38.6212     4.5262 H            1 1NQ402   0.0000
@<TRIPOS>BOND
     1    1    2       1
     2    2    3       1
     3    3    4      am
     4    4    5       2
     5    4    6       1
     6    6    7       1
     7    6    8       2
     8    7   10       1
     9    8    9       1
    10    9   10       2
    11   10   11       1
    12   11   12       2
    13   11   13      am
    14   13   14       1
    15   14   15       1
    16   15   16       1
    17   16   17       1
    18   16   19       1
    19   17   18       1
    20   18   21       1
    21   19   20       1
    22   20   21       1
    23   21   22       1
    24   22   23      ar
    25   22   28      ar
    26   23   24      ar
    27   24   25      ar
    28   25   26      ar
    29   26   27       1
    30   26   28      ar
    31   27   30       2
    32   28   29       1
    33   29   30       1
    34   30   31       1
    35   31   32       2
    36   31   33      am
    37    1   34       1
    38    1   35       1
    39    1   36       1
    40    2   37       1
    41    2   38       1
    42    3   39       1
    43    8   40       1
    44    9   41       1
    45   13   42       1
    46   14   43       1
    47   14   44       1
    48   15   45       1
    49   15   46       1
    50   16   47       1
    51   17   48       1
    52   17   49       1
    53   18   50       1
    54   18   51       1
    55   19   52       1
    56   19   53       1
    57   20   54       1
    58   20   55       1
    59   24   56       1
    60   27   57       1
    61   33   58       1
    62   33   59       1
@<TRIPOS>SUBSTRUCTURE
     1 1NQ402      1 GROUP             4 A     1NQ     0 **** 1NQ A 402
