@<TRIPOS>MOLECULE
1t7t_DHT_1_ligand
   51    54     1     0     0
SMALL
NO_CHARGES


@<TRIPOS>ATOM
     1 C1           0.0360     5.3730    38.3090 C.3          1 DHT300   0.0000
     2 C2          -0.7540     6.6180    38.7340 C.3          1 DHT300   0.0000
     3 C3          -2.1670     6.4760    38.1030 C.2          1 DHT300   0.0000
     4 O3          -2.6060     7.4010    37.4400 O.2          1 DHT300   0.0000
     5 C4          -2.9040     5.1900    38.3210 C.3          1 DHT300   0.0000
     6 C5          -2.0610     3.9780    37.8390 C.3          1 DHT300   0.0000
     7 C6          -2.7920     2.6100    38.0500 C.3          1 DHT300   0.0000
     8 C7          -1.9080     1.4650    37.5200 C.3          1 DHT300   0.0000
     9 C8          -0.5120     1.4080    38.2300 C.3          1 DHT300   0.0000
    10 C9           0.2070     2.7920    38.0460 C.3          1 DHT300   0.0000
    11 C10         -0.6450     4.0020    38.5900 C.3          1 DHT300   0.0000
    12 C11          1.6140     2.7070    38.7270 C.3          1 DHT300   0.0000
    13 C12          2.5150     1.5580    38.2830 C.3          1 DHT300   0.0000
    14 C13          1.8020     0.1860    38.3270 C.3          1 DHT300   0.0000
    15 C14          0.3940     0.3030    37.6470 C.3          1 DHT300   0.0000
    16 C15         -0.1090    -1.1480    37.7190 C.3          1 DHT300   0.0000
    17 C16          1.1560    -1.9420    37.2960 C.3          1 DHT300   0.0000
    18 C17          2.3340    -0.9380    37.4610 C.3          1 DHT300   0.0000
    19 O17          3.4660    -1.6160    38.0340 O.3          1 DHT300   0.0000
    20 C18          1.6850    -0.2710    39.8380 C.3          1 DHT300   0.0000
    21 C19         -0.8500     3.8300    40.1570 C.3          1 DHT300   0.0000
    22 H1           0.9102     5.3853    38.7944 H            1 DHT300   0.0000
    23 H2           0.2004     5.4366    37.3247 H            1 DHT300   0.0000
    24 H3          -0.3052     7.4449    38.3952 H            1 DHT300   0.0000
    25 H4          -0.8228     6.6606    39.7307 H            1 DHT300   0.0000
    26 H5          -3.7633     5.2147    37.8102 H            1 DHT300   0.0000
    27 H6          -3.0989     5.0858    39.2963 H            1 DHT300   0.0000
    28 H7          -1.8925     4.0897    36.8596 H            1 DHT300   0.0000
    29 H8          -3.6605     2.6168    37.5544 H            1 DHT300   0.0000
    30 H9          -2.9657     2.4724    39.0251 H            1 DHT300   0.0000
    31 H10         -1.7641     1.5983    36.5394 H            1 DHT300   0.0000
    32 H11         -2.3812     0.5974    37.6725 H            1 DHT300   0.0000
    33 H12         -0.6484     1.2377    39.2059 H            1 DHT300   0.0000
    34 H13          0.3496     2.9345    37.0665 H            1 DHT300   0.0000
    35 H14          1.4700     2.6173    39.7125 H            1 DHT300   0.0000
    36 H15          2.0960     3.5623    38.5371 H            1 DHT300   0.0000
    37 H16          3.3109     1.5241    38.8875 H            1 DHT300   0.0000
    38 H17          2.8158     1.7318    37.3453 H            1 DHT300   0.0000
    39 H18          0.5453     0.5190    36.6824 H            1 DHT300   0.0000
    40 H19         -0.8659    -1.3032    37.0841 H            1 DHT300   0.0000
    41 H20         -0.3969    -1.3883    38.6460 H            1 DHT300   0.0000
    42 H21          1.0808    -2.2428    36.3453 H            1 DHT300   0.0000
    43 H22          1.2863    -2.7374    37.8880 H            1 DHT300   0.0000
    44 H23          2.5859    -0.5737    36.5644 H            1 DHT300   0.0000
    45 H24          4.3088    -1.1672    37.7369 H            1 DHT300   0.0000
    46 H25          1.2254    -1.1580    39.8833 H            1 DHT300   0.0000
    47 H26          2.5997    -0.3489    40.2345 H            1 DHT300   0.0000
    48 H27          1.1559     0.4052    40.3507 H            1 DHT300   0.0000
    49 H28         -1.2875     2.9499    40.3413 H            1 DHT300   0.0000
    50 H29          0.0383     3.8631    40.6150 H            1 DHT300   0.0000
    51 H30         -1.4298     4.5688    40.5004 H            1 DHT300   0.0000
@<TRIPOS>BOND
     1    1    2       1
     2    1   11       1
     3    2    3       1
     4    3    4       2
     5    3    5       1
     6    5    6       1
     7    6    7       1
     8    6   11       1
     9    7    8       1
    10    8    9       1
    11    9   10       1
    12    9   15       1
    13   10   11       1
    14   10   12       1
    15   11   21       1
    16   12   13       1
    17   13   14       1
    18   14   15       1
    19   14   18       1
    20   14   20       1
    21   15   16       1
    22   16   17       1
    23   17   18       1
    24   18   19       1
    25    1   22       1
    26    1   23       1
    27    2   24       1
    28    2   25       1
    29    5   26       1
    30    5   27       1
    31    6   28       1
    32    7   29       1
    33    7   30       1
    34    8   31       1
    35    8   32       1
    36    9   33       1
    37   10   34       1
    38   12   35       1
    39   12   36       1
    40   13   37       1
    41   13   38       1
    42   15   39       1
    43   16   40       1
    44   16   41       1
    45   17   42       1
    46   17   43       1
    47   18   44       1
    48   19   45       1
    49   20   46       1
    50   20   47       1
    51   20   48       1
    52   21   49       1
    53   21   50       1
    54   21   51       1
@<TRIPOS>SUBSTRUCTURE
     1 DHT300      1 GROUP             4 A     DHT     0 **** DHT A 300
