@<TRIPOS>MOLECULE
3t70_DU4_3_ligand
   56    59     1     0     0
SMALL
NO_CHARGES


@<TRIPOS>ATOM
     1 N1          17.5040    21.7470    -0.2410 N.pl3        1 DU4400   0.0000
     2 C2          18.3290    22.7300    -0.8310 C.2          1 DU4400   0.0000
     3 O2          19.5610    22.6610    -0.8230 O.2          1 DU4400   0.0000
     4 N3          17.7310    23.8190    -1.4520 N.pl3        1 DU4400   0.0000
     5 C4          16.3350    23.9430    -1.5070 C.2          1 DU4400   0.0000
     6 O4          15.8520    24.9250    -2.0660 O.2          1 DU4400   0.0000
     7 C5          15.5100    22.9730    -0.9270 C.2          1 DU4400   0.0000
     8 C6          16.0980    21.8810    -0.2880 C.2          1 DU4400   0.0000
     9 C1'         18.1390    20.5730     0.4080 C.3          1 DU4400   0.0000
    10 C17         18.0310    18.2440    -4.4060 C.3          1 DU4400   0.0000
    11 C18         19.1880    17.9390    -5.3970 C.ar         1 DU4400   0.0000
    12 C19         19.0110    16.9490    -6.3660 C.ar         1 DU4400   0.0000
    13 C2'         17.2840    19.7230     1.3540 C.3          1 DU4400   0.0000
    14 C20         20.0350    16.6510    -7.2710 C.ar         1 DU4400   0.0000
    15 C21         21.2420    17.3520    -7.2110 C.ar         1 DU4400   0.0000
    16 C22         21.4220    18.3440    -6.2500 C.ar         1 DU4400   0.0000
    17 C23         20.3980    18.6400    -5.3430 C.ar         1 DU4400   0.0000
    18 C24         17.5720    19.6910    -4.6630 C.ar         1 DU4400   0.0000
    19 C25         16.5830    19.9030    -5.6270 C.ar         1 DU4400   0.0000
    20 C26         16.1390    21.1950    -5.9100 C.ar         1 DU4400   0.0000
    21 C27         16.6840    22.2800    -5.2240 C.ar         1 DU4400   0.0000
    22 C28         17.6810    22.0730    -4.2690 C.ar         1 DU4400   0.0000
    23 C29         18.1280    20.7830    -3.9870 C.ar         1 DU4400   0.0000
    24 C3'         16.7210    18.6460     0.4370 C.3          1 DU4400   0.0000
    25 O3'         16.5440    17.4370     1.1800 O.3          1 DU4400   0.0000
    26 C4'         17.8150    18.4560    -0.6190 C.3          1 DU4400   0.0000
    27 O4'         18.4880    19.7280    -0.7340 O.3          1 DU4400   0.0000
    28 C41         18.9120    16.5730    -2.8510 C.3          1 DU4400   0.0000
    29 C5'         17.2740    18.0890    -2.0360 C.3          1 DU4400   0.0000
    30 N5'         18.4000    17.9560    -2.9900 N.4          1 DU4400   1.0000
    31 H1          18.3047    24.5256    -1.8663 H            1 DU4400   0.0000
    32 H2          14.5148    23.0611    -0.9698 H            1 DU4400   0.0000
    33 H3          15.5194    21.1870     0.1405 H            1 DU4400   0.0000
    34 H1'         18.9731    20.8611     0.8785 H            1 DU4400   0.0000
    35 H5          17.2683    17.6425    -4.6437 H            1 DU4400   0.0000
    36 H6          18.1459    16.4496    -6.4132 H            1 DU4400   0.0000
    37 H2'1        16.5505    20.2670     1.7614 H            1 DU4400   0.0000
    38 H2'2        17.8428    19.3208     2.0792 H            1 DU4400   0.0000
    39 H9          19.9034    15.9378    -7.9595 H            1 DU4400   0.0000
    40 H10         21.9757    17.1418    -7.8571 H            1 DU4400   0.0000
    41 H11         22.2856    18.8463    -6.2080 H            1 DU4400   0.0000
    42 H12         20.5312    19.3536    -4.6552 H            1 DU4400   0.0000
    43 H13         16.1912    19.1242    -6.1169 H            1 DU4400   0.0000
    44 H14         15.4325    21.3425    -6.6022 H            1 DU4400   0.0000
    45 H15         16.3606    23.2065    -5.4162 H            1 DU4400   0.0000
    46 H16         18.0763    22.8537    -3.7850 H            1 DU4400   0.0000
    47 H17         18.8437    20.6384    -3.3038 H            1 DU4400   0.0000
    48 H3'         15.8623    18.9413     0.0181 H            1 DU4400   0.0000
    49 H19         16.3493    17.6585     2.1355 H            1 DU4400   0.0000
    50 H4'         18.4622    17.7577    -0.3132 H            1 DU4400   0.0000
    51 H21         19.1530    16.4012    -1.8958 H            1 DU4400   0.0000
    52 H22         18.2059    15.9257    -3.1382 H            1 DU4400   0.0000
    53 H23         19.7227    16.4584    -3.4251 H            1 DU4400   0.0000
    54 H5'1        16.6562    18.8094    -2.3513 H            1 DU4400   0.0000
    55 H5'2        16.7777    17.2222    -1.9867 H            1 DU4400   0.0000
    56 H5'         19.1232    18.5901    -2.7163 H            1 DU4400   0.0000
@<TRIPOS>BOND
     1    1    2       1
     2    1    8       1
     3    1    9       1
     4    2    3       2
     5    2    4       1
     6    4    5       1
     7    5    6       2
     8    5    7       1
     9    7    8       2
    10    9   13       1
    11    9   27       1
    12   10   11       1
    13   10   18       1
    14   10   30       1
    15   11   12      ar
    16   11   17      ar
    17   12   14      ar
    18   13   24       1
    19   14   15      ar
    20   15   16      ar
    21   16   17      ar
    22   18   19      ar
    23   18   23      ar
    24   19   20      ar
    25   20   21      ar
    26   21   22      ar
    27   22   23      ar
    28   24   25       1
    29   24   26       1
    30   26   27       1
    31   26   29       1
    32   28   30       1
    33   29   30       1
    34    4   31       1
    35    7   32       1
    36    8   33       1
    37    9   34       1
    38   10   35       1
    39   12   36       1
    40   13   37       1
    41   13   38       1
    42   14   39       1
    43   15   40       1
    44   16   41       1
    45   17   42       1
    46   19   43       1
    47   20   44       1
    48   21   45       1
    49   22   46       1
    50   23   47       1
    51   24   48       1
    52   25   49       1
    53   26   50       1
    54   28   51       1
    55   28   52       1
    56   28   53       1
    57   29   54       1
    58   29   55       1
    59   30   56       1
@<TRIPOS>SUBSTRUCTURE
     1 DU4400      1 GROUP             4 C     DU4     0 **** DU4 C 400
