@<TRIPOS>MOLECULE
2fw3_BUI_1_ligand
   73    72     1     0     0
SMALL
NO_CHARGES


@<TRIPOS>ATOM
     1 O9          27.7370    10.0010    32.4040 O.co2        1 BUI900   0.0000
     2 C3          26.4760     9.9220    32.2400 C.2          1 BUI900   0.0000
     3 O8          25.8540    10.7190    31.4910 O.co2        1 BUI900  -1.0000
     4 C2          25.6900     8.8300    32.9560 C.3          1 BUI900   0.0000
     5 C5          24.1790     9.1310    33.1180 C.3          1 BUI900   0.0000
     6 C10         23.8600    10.2710    34.1080 C.3          1 BUI900   0.0000
     7 N6          22.5080    10.9210    33.9700 N.4          1 BUI900   1.0000
     8 C14         21.3620    10.0350    34.2790 C.3          1 BUI900   0.0000
     9 C13         22.2860    11.5170    32.6320 C.3          1 BUI900   0.0000
    10 C12         22.4240    11.9880    34.9730 C.3          1 BUI900   0.0000
    11 N4          23.5840     7.9080    33.6690 N.2          1 BUI900   0.0000
    12 C1          22.8390     7.1140    32.8520 C.2          1 BUI900   0.0000
    13 O7          22.6920     7.4560    31.6740 O.3          1 BUI900   0.0000
    14 N11         22.2500     5.9720    33.3090 N.pl3        1 BUI900   0.0000
    15 C15         21.4280     5.0230    32.5590 C.3          1 BUI900   0.0000
    16 C16         20.4290     4.4580    33.5690 C.3          1 BUI900   0.0000
    17 C24         18.9530     4.8750    33.4300 C.3          1 BUI900   0.0000
    18 C26         18.4310     4.7530    32.0110 C.3          1 BUI900   0.0000
    19 C27         16.9150     4.9990    31.9480 C.3          1 BUI900   0.0000
    20 C19         16.3310     4.8820    30.5350 C.3          1 BUI900   0.0000
    21 C20         15.4030     3.6680    30.4390 C.3          1 BUI900   0.0000
    22 C21         14.2870     3.8630    29.4110 C.3          1 BUI900   0.0000
    23 C22         13.1460     4.7240    29.9610 C.3          1 BUI900   0.0000
    24 C23         11.8080     4.0280    29.7190 C.3          1 BUI900   0.0000
    25 C25         10.5940     4.8650    30.1240 C.3          1 BUI900   0.0000
    26 C18          9.3370     4.1860    29.5970 C.3          1 BUI900   0.0000
    27 C17          8.0640     4.9930    29.8430 C.3          1 BUI900   0.0000
    28 C28          7.0850     4.2570    30.7270 C.3          1 BUI900   0.0000
    29 H1          26.0839     8.7072    33.8669 H            1 BUI900   0.0000
    30 H2          25.7859     7.9823    32.4343 H            1 BUI900   0.0000
    31 H3          23.7753     9.3330    32.2257 H            1 BUI900   0.0000
    32 H4          24.5529    10.9818    33.9866 H            1 BUI900   0.0000
    33 H5          23.9245     9.8971    35.0332 H            1 BUI900   0.0000
    34 H6          20.5079    10.5421    34.1632 H            1 BUI900   0.0000
    35 H7          21.3705     9.2505    33.6590 H            1 BUI900   0.0000
    36 H8          21.4338     9.7142    35.2234 H            1 BUI900   0.0000
    37 H9          21.3768    11.9320    32.5986 H            1 BUI900   0.0000
    38 H10         22.9787    12.2175    32.4600 H            1 BUI900   0.0000
    39 H11         22.3527    10.8038    31.9342 H            1 BUI900   0.0000
    40 H12         21.5343    12.4395    34.9056 H            1 BUI900   0.0000
    41 H13         22.5304    11.5957    35.8867 H            1 BUI900   0.0000
    42 H14         23.1501    12.6562    34.8105 H            1 BUI900   0.0000
    43 H15         22.3982     5.7574    34.2744 H            1 BUI900   0.0000
    44 H16         21.9956     4.2909    32.1823 H            1 BUI900   0.0000
    45 H17         20.9476     5.4884    31.8156 H            1 BUI900   0.0000
    46 H18         20.7338     4.7390    34.4790 H            1 BUI900   0.0000
    47 H19         20.4651     3.4611    33.4984 H            1 BUI900   0.0000
    48 H20         18.8626     5.8273    33.7216 H            1 BUI900   0.0000
    49 H21         18.4000     4.2906    34.0238 H            1 BUI900   0.0000
    50 H22         18.6258     3.8331    31.6706 H            1 BUI900   0.0000
    51 H23         18.8941     5.4265    31.4349 H            1 BUI900   0.0000
    52 H24         16.7299     5.9199    32.2911 H            1 BUI900   0.0000
    53 H25         16.4614     4.3275    32.5339 H            1 BUI900   0.0000
    54 H26         17.0774     4.7788    29.8776 H            1 BUI900   0.0000
    55 H27         15.8125     5.7105    30.3233 H            1 BUI900   0.0000
    56 H28         14.9891     3.5092    31.3353 H            1 BUI900   0.0000
    57 H29         15.9452     2.8700    30.1761 H            1 BUI900   0.0000
    58 H30         13.9221     2.9674    29.1565 H            1 BUI900   0.0000
    59 H31         14.6678     4.3101    28.6016 H            1 BUI900   0.0000
    60 H32         13.1471     5.6108    29.4989 H            1 BUI900   0.0000
    61 H33         13.2765     4.8598    30.9431 H            1 BUI900   0.0000
    62 H34         11.7949     3.1782    30.2460 H            1 BUI900   0.0000
    63 H35         11.7343     3.8169    28.7443 H            1 BUI900   0.0000
    64 H36         10.6711     5.7817    29.7320 H            1 BUI900   0.0000
    65 H37         10.5482     4.9315    31.1207 H            1 BUI900   0.0000
    66 H38          9.2425     3.2990    30.0490 H            1 BUI900   0.0000
    67 H39          9.4400     4.0488    28.6118 H            1 BUI900   0.0000
    68 H40          7.6263     5.1803    28.9636 H            1 BUI900   0.0000
    69 H41          8.3099     5.8564    30.2836 H            1 BUI900   0.0000
    70 H42          6.2692     4.8195    30.8614 H            1 BUI900   0.0000
    71 H43          6.8270     3.3941    30.2924 H            1 BUI900   0.0000
    72 H44          7.5107     4.0701    31.6124 H            1 BUI900   0.0000
    73 H45         22.1493     6.8903    31.0531 H            1 BUI900   0.0000
@<TRIPOS>BOND
     1    1    2      ar
     2    2    3      ar
     3    2    4       1
     4    4    5       1
     5    5    6       1
     6    5   11       1
     7    6    7       1
     8    7    8       1
     9    7    9       1
    10    7   10       1
    11   11   12       2
    12   12   13       1
    13   12   14       1
    14   14   15       1
    15   15   16       1
    16   16   17       1
    17   17   18       1
    18   18   19       1
    19   19   20       1
    20   20   21       1
    21   21   22       1
    22   22   23       1
    23   23   24       1
    24   24   25       1
    25   25   26       1
    26   26   27       1
    27   27   28       1
    28   28   72       1
    29    4   29       1
    30    4   30       1
    31    5   31       1
    32    6   32       1
    33    6   33       1
    34    8   34       1
    35    8   35       1
    36    8   36       1
    37    9   37       1
    38    9   38       1
    39    9   39       1
    40   10   40       1
    41   10   41       1
    42   10   42       1
    43   28   71       1
    44   14   43       1
    45   15   44       1
    46   15   45       1
    47   16   46       1
    48   16   47       1
    49   17   48       1
    50   17   49       1
    51   18   50       1
    52   18   51       1
    53   19   52       1
    54   19   53       1
    55   20   54       1
    56   20   55       1
    57   21   56       1
    58   21   57       1
    59   22   58       1
    60   22   59       1
    61   23   60       1
    62   23   61       1
    63   24   62       1
    64   24   63       1
    65   25   64       1
    66   25   65       1
    67   26   66       1
    68   26   67       1
    69   27   68       1
    70   27   69       1
    71   28   70       1
    72   13   73       1
@<TRIPOS>SUBSTRUCTURE
     1 BUI900      1 GROUP             4 A     BUI     0 **** BUI A 900
