@<TRIPOS>MOLECULE
1q6i_FK5_1_ligand
  128   131     1     0     0
SMALL
NO_CHARGES


@<TRIPOS>ATOM
     1 C1          13.1070    23.7660    19.6110 C.2          1 FK5301   0.0000
     2 C2          13.8640    24.8240    18.8450 C.3          1 FK5301   0.0000
     3 C3          14.9070    24.5610    17.7830 C.3          1 FK5301   0.0000
     4 C4          16.0840    24.0230    18.5510 C.3          1 FK5301   0.0000
     5 C5          16.6590    25.0930    19.4910 C.3          1 FK5301   0.0000
     6 C6          15.5950    25.7660    20.3690 C.3          1 FK5301   0.0000
     7 C8          13.6990    27.1040    19.5590 C.2          1 FK5301   0.0000
     8 C9          14.1280    28.1960    20.2620 C.2          1 FK5301   0.0000
     9 C10         13.5030    28.5460    21.5850 C.3          1 FK5301   0.0000
    10 C11         11.9690    28.5400    21.6360 C.3          1 FK5301   0.0000
    11 C12         11.4540    28.6610    23.0760 C.3          1 FK5301   0.0000
    12 C13         12.1850    27.7200    24.0190 C.3          1 FK5301   0.0000
    13 C14         13.6780    27.8710    23.8470 C.3          1 FK5301   0.0000
    14 C15         14.4900    26.9360    24.7440 C.3          1 FK5301   0.0000
    15 C16         14.9590    27.6110    26.0140 C.3          1 FK5301   0.0000
    16 C17         14.2290    27.2140    27.2910 C.3          1 FK5301   0.0000
    17 C18         13.3730    25.9410    27.1560 C.3          1 FK5301   0.0000
    18 C19         14.0230    24.6760    27.7080 C.2          1 FK5301   0.0000
    19 C20         13.1470    23.5830    28.1500 C.2          1 FK5301   0.0000
    20 C21         13.4790    22.1510    27.8500 C.3          1 FK5301   0.0000
    21 C22         12.9560    21.7030    26.5020 C.2          1 FK5301   0.0000
    22 C23         13.7560    21.9450    25.2540 C.3          1 FK5301   0.0000
    23 C24         12.9570    21.5920    23.9950 C.3          1 FK5301   0.0000
    24 C25         13.4510    22.5600    22.9400 C.3          1 FK5301   0.0000
    25 C26         12.6980    22.6780    21.6160 C.3          1 FK5301   0.0000
    26 C27         11.2780    22.7820    21.9670 C.2          1 FK5301   0.0000
    27 C28         10.4530    21.6450    21.6320 C.2          1 FK5301   0.0000
    28 C29          8.9770    21.6940    21.7370 C.3          1 FK5301   0.0000
    29 C30          8.3670    21.8930    20.3570 C.3          1 FK5301   0.0000
    30 C31          6.8440    21.7490    20.4050 C.3          1 FK5301   0.0000
    31 C32          6.5300    20.4010    20.9960 C.3          1 FK5301   0.0000
    32 C33          7.0730    20.2940    22.4080 C.3          1 FK5301   0.0000
    33 C34          8.5780    20.3580    22.3270 C.3          1 FK5301   0.0000
    34 C35         11.3630    29.6410    20.7950 C.3          1 FK5301   0.0000
    35 C36         13.4230    28.4380    27.7180 C.3          1 FK5301   0.0000
    36 C37         15.5090    24.4880    27.7950 C.3          1 FK5301   0.0000
    37 C38         12.9330    21.3090    29.0020 C.3          1 FK5301   0.0000
    38 C39         14.0630    20.5130    29.6210 C.3          1 FK5301   0.0000
    39 C40         14.1740    20.4160    31.0820 C.3          1 FK5301   0.0000
    40 C41         14.8470    22.0980    22.6060 C.3          1 FK5301   0.0000
    41 C42         10.7710    24.0310    22.6190 C.3          1 FK5301   0.0000
    42 C43         10.5410    27.9080    25.7440 C.3          1 FK5301   0.0000
    43 C44         16.6880    25.9970    24.7660 C.3          1 FK5301   0.0000
    44 C45          5.6060    22.9700    18.7570 C.3          1 FK5301   0.0000
    45 N7          14.3470    25.9650    19.5900 N.am         1 FK5301   0.0000
    46 O1          13.1180    23.8370    20.8580 O.3          1 FK5301   0.0000
    47 O2          12.5010    22.6830    18.9620 O.2          1 FK5301   0.0000
    48 O3          12.5410    27.2220    18.8260 O.2          1 FK5301   0.0000
    49 O4          15.1760    28.9840    19.7790 O.2          1 FK5301   0.0000
    50 O5          13.9580    27.5550    22.4970 O.3          1 FK5301   0.0000
    51 O6          14.0070    29.8850    21.8320 O.3          1 FK5301   0.0000
    52 O7          11.9010    27.9850    25.3690 O.3          1 FK5301   0.0000
    53 O8          15.6280    26.5490    24.0230 O.3          1 FK5301   0.0000
    54 O9          11.7450    21.0360    26.3280 O.2          1 FK5301   0.0000
    55 O10         13.2180    20.2860    23.5560 O.3          1 FK5301   0.0000
    56 O11          6.2920    21.7870    19.1090 O.3          1 FK5301   0.0000
    57 O12          5.1530    20.1680    21.0020 O.3          1 FK5301   0.0000
    58 H1          13.1317    25.2375    18.3039 H            1 FK5301   0.0000
    59 H2          15.1500    25.4061    17.3069 H            1 FK5301   0.0000
    60 H3          14.5776    23.8881    17.1206 H            1 FK5301   0.0000
    61 H4          16.7933    23.7380    17.9063 H            1 FK5301   0.0000
    62 H5          15.7896    23.2354    19.0923 H            1 FK5301   0.0000
    63 H6          17.1041    25.7963    18.9366 H            1 FK5301   0.0000
    64 H7          17.3355    24.6610    20.0874 H            1 FK5301   0.0000
    65 H8          15.9356    26.6528    20.6812 H            1 FK5301   0.0000
    66 H9          15.4027    25.1854    21.1602 H            1 FK5301   0.0000
    67 H10         11.6532    27.6648    21.2696 H            1 FK5301   0.0000
    68 H11         10.4788    28.4402    23.0904 H            1 FK5301   0.0000
    69 H12         11.5876    29.6012    23.3894 H            1 FK5301   0.0000
    70 H13         11.9247    26.7777    23.8084 H            1 FK5301   0.0000
    71 H14         13.9404    28.8187    24.0289 H            1 FK5301   0.0000
    72 H15         13.9447    26.1294    24.9721 H            1 FK5301   0.0000
    73 H16         14.8505    28.5978    25.8939 H            1 FK5301   0.0000
    74 H17         15.9277    27.3945    26.1356 H            1 FK5301   0.0000
    75 H18         14.9186    27.0434    27.9948 H            1 FK5301   0.0000
    76 H19         13.1820    25.7952    26.1853 H            1 FK5301   0.0000
    77 H20         12.5141    26.0895    27.6461 H            1 FK5301   0.0000
    78 H21         12.3141    23.7973    28.6602 H            1 FK5301   0.0000
    79 H22         14.4747    22.0584    27.8428 H            1 FK5301   0.0000
    80 H23         14.5815    21.3814    25.2832 H            1 FK5301   0.0000
    81 H24         14.0129    22.9107    25.2153 H            1 FK5301   0.0000
    82 H25         11.9780    21.7184    24.1549 H            1 FK5301   0.0000
    83 H26         13.5103    23.4699    23.3506 H            1 FK5301   0.0000
    84 H27         12.8476    21.8520    21.0725 H            1 FK5301   0.0000
    85 H28         10.8907    20.8015    21.3206 H            1 FK5301   0.0000
    86 H29          8.6995    22.4365    22.3466 H            1 FK5301   0.0000
    87 H30          8.7408    21.2075    19.7322 H            1 FK5301   0.0000
    88 H31          8.5988    22.8076    20.0257 H            1 FK5301   0.0000
    89 H32          6.4475    22.4731    20.9694 H            1 FK5301   0.0000
    90 H33          6.9677    19.6990    20.4342 H            1 FK5301   0.0000
    91 H34          6.7906    19.4261    22.8166 H            1 FK5301   0.0000
    92 H35          6.7293    21.0513    22.9633 H            1 FK5301   0.0000
    93 H36          8.9684    20.2648    23.2429 H            1 FK5301   0.0000
    94 H37          8.9152    19.6187    21.7441 H            1 FK5301   0.0000
    95 H38         10.3659    29.5984    20.8583 H            1 FK5301   0.0000
    96 H39         11.6806    30.5286    21.1287 H            1 FK5301   0.0000
    97 H40         11.6417    29.5241    19.8418 H            1 FK5301   0.0000
    98 H41         12.9210    28.2303    28.5576 H            1 FK5301   0.0000
    99 H42         14.0433    29.2051    27.8817 H            1 FK5301   0.0000
   100 H43         12.7767    28.6805    26.9945 H            1 FK5301   0.0000
   101 H44         15.7090    23.5896    28.1861 H            1 FK5301   0.0000
   102 H45         15.9069    24.5491    26.8796 H            1 FK5301   0.0000
   103 H46         15.9015    25.1999    28.3773 H            1 FK5301   0.0000
   104 H47         12.2341    20.6830    28.6560 H            1 FK5301   0.0000
   105 H48         12.5302    21.9095    29.6927 H            1 FK5301   0.0000
   106 H49         14.9162    20.9181    29.2923 H            1 FK5301   0.0000
   107 H50         13.9824    19.5785    29.2743 H            1 FK5301   0.0000
   108 H51         14.9694    19.8584    31.3196 H            1 FK5301   0.0000
   109 H52         14.2810    21.3316    31.4697 H            1 FK5301   0.0000
   110 H53         13.3472    19.9920    31.4517 H            1 FK5301   0.0000
   111 H54         15.2387    22.6979    21.9083 H            1 FK5301   0.0000
   112 H55         15.4142    22.1291    23.4290 H            1 FK5301   0.0000
   113 H56         14.8139    21.1606    22.2592 H            1 FK5301   0.0000
   114 H57          9.7900    23.9423    22.7917 H            1 FK5301   0.0000
   115 H58         11.2504    24.1731    23.4850 H            1 FK5301   0.0000
   116 H59         10.9340    24.8117    22.0157 H            1 FK5301   0.0000
   117 H60         10.4519    28.1130    26.7187 H            1 FK5301   0.0000
   118 H61         10.0112    28.5703    25.2143 H            1 FK5301   0.0000
   119 H62         10.1974    26.9862    25.5644 H            1 FK5301   0.0000
   120 H63         17.4393    25.7605    24.1498 H            1 FK5301   0.0000
   121 H64         17.0064    26.6646    25.4390 H            1 FK5301   0.0000
   122 H65         16.3715    25.1737    25.2371 H            1 FK5301   0.0000
   123 H66          5.2581    22.8882    17.8230 H            1 FK5301   0.0000
   124 H67          4.8418    23.1119    19.3862 H            1 FK5301   0.0000
   125 H68          6.2323    23.7476    18.8125 H            1 FK5301   0.0000
   126 H69         15.0060    29.8634    21.8701 H            1 FK5301   0.0000
   127 H70         14.1530    20.0319    23.8032 H            1 FK5301   0.0000
   128 H71          4.9689    19.2685    21.3982 H            1 FK5301   0.0000
@<TRIPOS>BOND
     1    1    2       1
     2    1   46       1
     3    1   47       2
     4    2    3       1
     5    2   45       1
     6    3    4       1
     7    4    5       1
     8    5    6       1
     9    6   45       1
    10    7    8       1
    11    7   45      am
    12    7   48       2
    13    8    9       1
    14    8   49       2
    15    9   10       1
    16    9   50       1
    17    9   51       1
    18   10   11       1
    19   10   34       1
    20   11   12       1
    21   12   13       1
    22   12   52       1
    23   13   14       1
    24   13   50       1
    25   14   15       1
    26   14   53       1
    27   15   16       1
    28   16   17       1
    29   16   35       1
    30   17   18       1
    31   18   19       2
    32   18   36       1
    33   19   20       1
    34   20   21       1
    35   20   37       1
    36   21   22       1
    37   21   54       2
    38   22   23       1
    39   23   24       1
    40   23   55       1
    41   24   25       1
    42   24   40       1
    43   25   26       1
    44   25   46       1
    45   26   27       2
    46   26   41       1
    47   27   28       1
    48   28   29       1
    49   28   33       1
    50   29   30       1
    51   30   31       1
    52   30   56       1
    53   31   32       1
    54   31   57       1
    55   32   33       1
    56   37   38       1
    57   38   39       1
    58   42   52       1
    59   43   53       1
    60   44   56       1
    61    2   58       1
    62    3   59       1
    63    3   60       1
    64    4   61       1
    65    4   62       1
    66    5   63       1
    67    5   64       1
    68    6   65       1
    69    6   66       1
    70   10   67       1
    71   11   68       1
    72   11   69       1
    73   12   70       1
    74   13   71       1
    75   14   72       1
    76   15   73       1
    77   15   74       1
    78   16   75       1
    79   17   76       1
    80   17   77       1
    81   19   78       1
    82   20   79       1
    83   22   80       1
    84   22   81       1
    85   23   82       1
    86   24   83       1
    87   25   84       1
    88   27   85       1
    89   28   86       1
    90   29   87       1
    91   29   88       1
    92   30   89       1
    93   31   90       1
    94   32   91       1
    95   32   92       1
    96   33   93       1
    97   33   94       1
    98   34   95       1
    99   34   96       1
   100   34   97       1
   101   35   98       1
   102   35   99       1
   103   35  100       1
   104   36  101       1
   105   36  102       1
   106   36  103       1
   107   37  104       1
   108   37  105       1
   109   38  106       1
   110   38  107       1
   111   39  108       1
   112   39  109       1
   113   39  110       1
   114   40  111       1
   115   40  112       1
   116   40  113       1
   117   41  114       1
   118   41  115       1
   119   41  116       1
   120   42  117       1
   121   42  118       1
   122   42  119       1
   123   43  120       1
   124   43  121       1
   125   43  122       1
   126   44  123       1
   127   44  124       1
   128   44  125       1
   129   51  126       1
   130   55  127       1
   131   57  128       1
@<TRIPOS>SUBSTRUCTURE
     1 FK5301      1 GROUP             4 A     FK5     0 **** FK5 A 301
