@<TRIPOS>MOLECULE
3nxe_2NC_1_ligand
  123   122     1     0     0
SMALL
NO_CHARGES


@<TRIPOS>ATOM
     1 C            4.4270    -8.8280    16.5100 C.2          1 2NC204   0.0000
     2 O            3.5560    -8.6270    17.3730 O.2          1 2NC204   0.0000
     3 CH3          4.1250    -9.3220    15.1200 C.3          1 2NC204   0.0000
     4 N            5.7090    -8.6280    16.7950 N.am         1 2NC204   0.0000
     5 CA           6.1290    -7.9880    18.0490 C.3          1 2NC204   0.0000
     6 C1           6.7360    -6.5810    17.8740 C.2          1 2NC204   0.0000
     7 O1           7.1130    -5.9540    18.8620 O.2          1 2NC204   0.0000
     8 CB           7.1970    -8.8140    18.7590 C.3          1 2NC204   0.0000
     9 OG1          8.3340    -8.9640    17.9050 O.3          1 2NC204   0.0000
    10 CG2          6.6820   -10.2370    19.1010 C.3          1 2NC204   0.0000
    11 N1           6.8610    -6.1010    16.6450 N.am         1 2NC204   0.0000
    12 CA1          7.4560    -4.8020    16.3930 C.3          1 2NC204   0.0000
    13 C2           6.4140    -3.8860    15.7220 C.2          1 2NC204   0.0000
    14 O2           6.2960    -3.8460    14.5000 O.2          1 2NC204   0.0000
    15 CB1          8.7760    -4.8950    15.5920 C.3          1 2NC204   0.0000
    16 CG1          9.8080    -5.8710    16.2040 C.3          1 2NC204   0.0000
    17 CG21         9.4580    -3.5250    15.4630 C.3          1 2NC204   0.0000
    18 CD1         10.2970    -5.5330    17.5940 C.3          1 2NC204   0.0000
    19 N2           5.6210    -3.1400    16.4680 N.am         1 2NC204   0.0000
    20 CA2          4.5110    -2.4540    15.8470 C.3          1 2NC204   0.0000
    21 C3           4.7560    -0.9560    15.8020 C.3          1 2NC204   0.0000
    22 CB2          3.2440    -2.8500    16.6010 C.3          1 2NC204   0.0000
    23 CG           2.9730    -4.3410    16.8560 C.3          1 2NC204   0.0000
    24 CD           2.8330    -5.1720    15.5670 C.3          1 2NC204   0.0000
    25 CE           1.8120    -4.5060    14.6670 C.3          1 2NC204   0.0000
    26 N3           5.9940    -0.6090    15.0990 N.4          1 2NC204   1.0000
    27 CA3          5.9330     0.6030    14.2920 C.3          1 2NC204   0.0000
    28 C4           4.9140     0.4910    13.1730 C.2          1 2NC204   0.0000
    29 O3           4.7130    -0.5550    12.5460 O.2          1 2NC204   0.0000
    30 CB3          7.3380     0.8520    13.7330 C.3          1 2NC204   0.0000
    31 CG3          7.5190     2.0170    12.7450 C.3          1 2NC204   0.0000
    32 CD2          7.6970     1.4930    11.3280 C.3          1 2NC204   0.0000
    33 CE1          9.0090     0.7750    11.0870 C.3          1 2NC204   0.0000
    34 N4           4.2900     1.5990    12.8320 N.am         1 2NC204   0.0000
    35 CA4          3.3340     1.6960    11.7410 C.3          1 2NC204   0.0000
    36 C5           3.3510     3.1050    11.1080 C.2          1 2NC204   0.0000
    37 O4           3.4280     4.1350    11.7780 O.2          1 2NC204   0.0000
    38 CB4          1.9340     1.2680    12.1940 C.3          1 2NC204   0.0000
    39 CG4          0.8570     1.4010    11.1380 C.3          1 2NC204   0.0000
    40 CD3          0.2700     2.7940    11.0290 C.2          1 2NC204   0.0000
    41 OE1          0.3910     3.5830    11.9390 O.2          1 2NC204   0.0000
    42 NE2         -0.3750     3.0870     9.9140 N.am         1 2NC204   0.0000
    43 N5           3.2480     3.1490     9.8060 N.am         1 2NC204   0.0000
    44 CA5          3.1760     4.4130     9.1250 C.3          1 2NC204   0.0000
    45 C6           2.2370     4.3340     7.9650 C.2          1 2NC204   0.0000
    46 O5           2.2120     3.3210     7.2920 O.2          1 2NC204   0.0000
    47 CB5          4.5700     4.8490     8.7090 C.3          1 2NC204   0.0000
    48 CG5          5.6050     3.7600     8.5440 C.3          1 2NC204   0.0000
    49 CD4          7.0190     4.3340     8.3690 C.3          1 2NC204   0.0000
    50 NE           7.0490     5.5110     7.4910 N.pl3        1 2NC204   1.0000
    51 CZ           8.1560     6.1450     7.1220 C.cat        1 2NC204   0.0000
    52 NH1          9.3420     5.7180     7.5350 N.pl3        1 2NC204   0.0000
    53 NH2          8.0800     7.2060     6.3220 N.pl3        1 2NC204   0.0000
    54 N6           1.3660     5.3310     7.7810 N.am         1 2NC204   0.0000
    55 HH31         4.9775    -9.4089    14.6046 H            1 2NC204   0.0000
    56 HH32         3.6755   -10.2137    15.1735 H            1 2NC204   0.0000
    57 HH33         3.5215    -8.6715    14.6589 H            1 2NC204   0.0000
    58 H4           6.4055    -8.9203    16.1397 H            1 2NC204   0.0000
    59 HA           5.3329    -7.9166    18.6499 H            1 2NC204   0.0000
    60 HB           7.4722    -8.3489    19.6004 H            1 2NC204   0.0000
    61 HG1          8.2265    -9.7879    17.3485 H            1 2NC204   0.0000
    62 HG21         7.4043   -10.7505    19.5642 H            1 2NC204   0.0000
    63 HG22         5.8850   -10.1678    19.7010 H            1 2NC204   0.0000
    64 HG23         6.4248   -10.7099    18.2583 H            1 2NC204   0.0000
    65 H11          6.5373    -6.6475    15.8726 H            1 2NC204   0.0000
    66 HA1          7.6762    -4.3994    17.2815 H            1 2NC204   0.0000
    67 HB1          8.5556    -5.2172    14.6714 H            1 2NC204   0.0000
    68 HG11        10.6028    -5.8955    15.5977 H            1 2NC204   0.0000
    69 HG12         9.3878    -6.7777    16.2396 H            1 2NC204   0.0000
    70 H16         10.3055    -3.6223    14.9412 H            1 2NC204   0.0000
    71 H17          8.8461    -2.8913    14.9898 H            1 2NC204   0.0000
    72 H18          9.6665    -3.1693    16.3741 H            1 2NC204   0.0000
    73 HD11        10.9560    -6.2233    17.8926 H            1 2NC204   0.0000
    74 HD12        10.7367    -4.6349    17.5835 H            1 2NC204   0.0000
    75 HD13         9.5217    -5.5171    18.2254 H            1 2NC204   0.0000
    76 H22          5.7861    -3.0506    17.4502 H            1 2NC204   0.0000
    77 HA2          4.4288    -2.7838    14.9065 H            1 2NC204   0.0000
    78 H24          4.8127    -0.6123    16.7394 H            1 2NC204   0.0000
    79 H25          3.9881    -0.5197    15.3329 H            1 2NC204   0.0000
    80 HB21         2.4681    -2.4947    16.0798 H            1 2NC204   0.0000
    81 HB22         3.2799    -2.4005    17.4935 H            1 2NC204   0.0000
    82 H28          2.1244    -4.4231    17.3787 H            1 2NC204   0.0000
    83 HG2          3.7314    -4.7131    17.3911 H            1 2NC204   0.0000
    84 HD1          2.5283    -6.0969    15.7945 H            1 2NC204   0.0000
    85 HD2          3.7154    -5.2175    15.0986 H            1 2NC204   0.0000
    86 HE1          1.7124    -5.0373    13.8257 H            1 2NC204   0.0000
    87 HE2          0.9314    -4.4603    15.1386 H            1 2NC204   0.0000
    88 HE3          2.1184    -3.5809    14.4427 H            1 2NC204   0.0000
    89 H35          6.2304    -1.3705    14.4955 H            1 2NC204   0.0000
    90 HA3          5.6805     1.3701    14.8818 H            1 2NC204   0.0000
    91 HB31         7.6256     0.0163    13.2651 H            1 2NC204   0.0000
    92 HB32         7.9427     1.0235    14.5108 H            1 2NC204   0.0000
    93 HG31         8.3275     2.5454    13.0042 H            1 2NC204   0.0000
    94 HG32         6.7112     2.6055    12.7789 H            1 2NC204   0.0000
    95 HD21         7.6446     2.2685    10.6988 H            1 2NC204   0.0000
    96 HD22         6.9513     0.8555    11.1342 H            1 2NC204   0.0000
    97 HE11         9.0488     0.4630    10.1378 H            1 2NC204   0.0000
    98 HE12         9.7688     1.4005    11.2644 H            1 2NC204   0.0000
    99 HE13         9.0755    -0.0124    11.6998 H            1 2NC204   0.0000
   100 H46          4.4862     2.4271    13.3572 H            1 2NC204   0.0000
   101 HA4          3.6258     1.0513    11.0345 H            1 2NC204   0.0000
   102 HB41         1.6738     1.8334    12.9767 H            1 2NC204   0.0000
   103 HB42         1.9775     0.3093    12.4751 H            1 2NC204   0.0000
   104 HG41         0.1182     0.7649    11.3604 H            1 2NC204   0.0000
   105 HG42         1.2525     1.1562    10.2528 H            1 2NC204   0.0000
   106 HE21        -0.7803     3.9933     9.7942 H            1 2NC204   0.0000
   107 HE22        -0.4580     2.4025     9.1897 H            1 2NC204   0.0000
   108 H54          3.2191     2.2987     9.2805 H            1 2NC204   0.0000
   109 HA5          2.8183     5.0909     9.7673 H            1 2NC204   0.0000
   110 HB51         4.9078     5.4844     9.4033 H            1 2NC204   0.0000
   111 HB52         4.4892     5.3245     7.8330 H            1 2NC204   0.0000
   112 HG51         5.3752     3.2154     7.7374 H            1 2NC204   0.0000
   113 HG52         5.5916     3.1758     9.3555 H            1 2NC204   0.0000
   114 HD41         7.6050     3.6260     7.9749 H            1 2NC204   0.0000
   115 HD42         7.3712     4.5962     9.2675 H            1 2NC204   0.0000
   116 HH11        10.1723     6.1993     7.2540 H            1 2NC204   0.0000
   117 HH12         9.4058     4.9148     8.1273 H            1 2NC204   0.0000
   118 HH21         8.9136     7.6834     6.0441 H            1 2NC204   0.0000
   119 HH22         7.1893     7.5257     5.9988 H            1 2NC204   0.0000
   120 H66          0.7273     5.3014     7.0121 H            1 2NC204   0.0000
   121 H67          1.3530     6.1065     8.4122 H            1 2NC204   0.0000
   122 H68          6.7142    -0.4893    15.7824 H            1 2NC204   0.0000
   123 HE           6.1765     5.8586     7.1477 H            1 2NC204   0.0000
@<TRIPOS>BOND
     1    1    2       2
     2    1    3       1
     3    1    4      am
     4    4    5       1
     5    5    6       1
     6    5    8       1
     7    6    7       2
     8    6   11      am
     9    8    9       1
    10    8   10       1
    11   11   12       1
    12   12   13       1
    13   12   15       1
    14   13   14       2
    15   13   19      am
    16   15   16       1
    17   15   17       1
    18   16   18       1
    19   19   20       1
    20   20   21       1
    21   20   22       1
    22   21   26       1
    23   22   23       1
    24   23   24       1
    25   24   25       1
    26   26   27       1
    27   27   28       1
    28   27   30       1
    29   28   29       2
    30   28   34      am
    31   30   31       1
    32   31   32       1
    33   32   33       1
    34   34   35       1
    35   35   36       1
    36   35   38       1
    37   36   37       2
    38   36   43      am
    39   38   39       1
    40   39   40       1
    41   40   41       2
    42   40   42      am
    43   43   44       1
    44   44   45       1
    45   44   47       1
    46   45   46       2
    47   45   54      am
    48   47   48       1
    49   48   49       1
    50   49   50       1
    51   50   51      ar
    52   51   52      ar
    53   51   53      ar
    54    3   55       1
    55    3   56       1
    56    3   57       1
    57    4   58       1
    58    5   59       1
    59    8   60       1
    60    9   61       1
    61   10   62       1
    62   10   63       1
    63   10   64       1
    64   11   65       1
    65   12   66       1
    66   15   67       1
    67   16   68       1
    68   16   69       1
    69   17   70       1
    70   17   71       1
    71   17   72       1
    72   18   73       1
    73   18   74       1
    74   18   75       1
    75   19   76       1
    76   20   77       1
    77   21   78       1
    78   21   79       1
    79   22   80       1
    80   22   81       1
    81   23   82       1
    82   23   83       1
    83   24   84       1
    84   24   85       1
    85   25   86       1
    86   25   87       1
    87   25   88       1
    88   26   89       1
    89   27   90       1
    90   30   91       1
    91   30   92       1
    92   31   93       1
    93   31   94       1
    94   32   95       1
    95   32   96       1
    96   33   97       1
    97   33   98       1
    98   33   99       1
    99   34  100       1
   100   35  101       1
   101   38  102       1
   102   38  103       1
   103   39  104       1
   104   39  105       1
   105   42  106       1
   106   42  107       1
   107   43  108       1
   108   44  109       1
   109   47  110       1
   110   47  111       1
   111   48  112       1
   112   48  113       1
   113   49  114       1
   114   49  115       1
   115   52  116       1
   116   52  117       1
   117   53  118       1
   118   53  119       1
   119   54  120       1
   120   54  121       1
   121   26  122       1
   122   50  123       1
@<TRIPOS>SUBSTRUCTURE
     1 2NC204      1 GROUP             4 A     2NC     0 **** 2NC A 204
