@<TRIPOS>MOLECULE
1cm8_ANP_2_ligand
   44    46     1     0     0
SMALL
NO_CHARGES


@<TRIPOS>ATOM
     1 PG           4.1000    35.9320    42.9680 P.3          1 ANP1400   0.0000
     2 O1G          2.5530    36.1030    43.1020 O.co2        1 ANP1400   0.0000
     3 O2G          4.6540    37.1380    42.1450 O.co2        1 ANP1400  -1.0000
     4 O3G          4.3130    34.5740    42.2210 O.co2        1 ANP1400  -1.0000
     5 PB           4.9020    34.7470    45.3670 P.3          1 ANP1400   0.0000
     6 O1B          3.7440    34.6320    46.3710 O.co2        1 ANP1400   0.0000
     7 O2B          5.3120    33.5080    44.5750 O.co2        1 ANP1400  -1.0000
     8 N3B          4.6350    35.9400    44.3960 N.3          1 ANP1400   0.0000
     9 PA           7.1460    36.3430    46.3650 P.3          1 ANP1400   0.0000
    10 O1A          8.5750    35.7720    46.6900 O.co2        1 ANP1400   0.0000
    11 O2A          7.1820    36.9810    45.0040 O.co2        1 ANP1400  -1.0000
    12 O3A          6.0430    35.0920    46.4570 O.3          1 ANP1400   0.0000
    13 O5'          6.7600    37.4600    47.3880 O.3          1 ANP1400   0.0000
    14 C5'          5.4790    38.1640    47.3950 C.3          1 ANP1400   0.0000
    15 C4'          5.6650    39.3560    48.3370 C.3          1 ANP1400   0.0000
    16 O4'          6.4740    38.9470    49.4500 O.3          1 ANP1400   0.0000
    17 C3'          6.5550    40.4310    47.6680 C.3          1 ANP1400   0.0000
    18 O3'          5.7360    41.3510    47.0200 O.3          1 ANP1400   0.0000
    19 C2'          7.3260    41.1250    48.7840 C.3          1 ANP1400   0.0000
    20 O2'          6.5470    42.0060    49.5450 O.3          1 ANP1400   0.0000
    21 C1'          7.5160    39.9130    49.6940 C.3          1 ANP1400   0.0000
    22 N9           8.8320    39.4670    49.8650 N.pl3        1 ANP1400   0.0000
    23 C8           9.3370    38.3120    49.3550 C.2          1 ANP1400   0.0000
    24 N7          10.6100    38.1240    49.7410 N.2          1 ANP1400   0.0000
    25 C5          10.8990    39.2000    50.5170 C.ar         1 ANP1400   0.0000
    26 C6          12.0000    39.6060    51.2140 C.ar         1 ANP1400   0.0000
    27 N6          13.1530    38.7750    51.2020 N.pl3        1 ANP1400   0.0000
    28 N1          11.9000    40.7640    51.8850 N.ar         1 ANP1400   0.0000
    29 C2          10.8320    41.5410    51.9280 C.ar         1 ANP1400   0.0000
    30 N3           9.6840    41.2460    51.2870 N.ar         1 ANP1400   0.0000
    31 C4           9.7380    40.0910    50.5980 C.ar         1 ANP1400   0.0000
    32 H3B          3.9945    36.5239    44.8948 H            1 ANP1400   0.0000
    33 H5'1         4.7534    37.5638    47.7316 H            1 ANP1400   0.0000
    34 H5'2         5.2500    38.4799    46.4743 H            1 ANP1400   0.0000
    35 H4'          4.7882    39.7335    48.6349 H            1 ANP1400   0.0000
    36 H3'          7.1863    40.0071    47.0186 H            1 ANP1400   0.0000
    37 H6           5.9530    41.3609    46.0439 H            1 ANP1400   0.0000
    38 H2'          8.1888    41.5264    48.4767 H            1 ANP1400   0.0000
    39 H8           6.1758    42.7202    48.9517 H            1 ANP1400   0.0000
    40 H1'          7.2818    40.2721    50.5974 H            1 ANP1400   0.0000
    41 H10          8.8265    37.6835    48.7682 H            1 ANP1400   0.0000
    42 H11         13.9726    39.0498    51.7047 H            1 ANP1400   0.0000
    43 H12         13.1446    37.9155    50.6909 H            1 ANP1400   0.0000
    44 H13         10.8778    42.3863    52.4604 H            1 ANP1400   0.0000
@<TRIPOS>BOND
     1    1    2      ar
     2    1    3      ar
     3    1    4      ar
     4    1    8       1
     5    5    6      ar
     6    5    7      ar
     7    5    8       1
     8    5   12       1
     9    9   10      ar
    10    9   11      ar
    11    9   12       1
    12    9   13       1
    13   13   14       1
    14   14   15       1
    15   15   16       1
    16   15   17       1
    17   16   21       1
    18   17   18       1
    19   17   19       1
    20   19   20       1
    21   19   21       1
    22   21   22       1
    23   22   23       1
    24   22   31       1
    25   23   24       2
    26   24   25       1
    27   25   26      ar
    28   25   31      ar
    29   26   27       1
    30   26   28      ar
    31   28   29      ar
    32   29   30      ar
    33   30   31      ar
    34   29   44       1
    35   27   43       1
    36   27   42       1
    37    8   32       1
    38   23   41       1
    39   14   33       1
    40   14   34       1
    41   15   35       1
    42   17   36       1
    43   18   37       1
    44   19   38       1
    45   20   39       1
    46   21   40       1
@<TRIPOS>SUBSTRUCTURE
     1 ANP1400     1 GROUP             4 B     ANP     0 **** ANP B1400
