@<TRIPOS>MOLECULE
4ivo_ACJ_1_ligand
   31    32     1     0     0
SMALL
NO_CHARGES


@<TRIPOS>ATOM
     1 O3          16.4560   -20.3110   -47.8060 O.3          1 ACJ501   0.0000
     2 C11         16.7650   -21.1590   -46.9470 C.2          1 ACJ501   0.0000
     3 O2          16.0120   -21.2600   -45.9430 O.2          1 ACJ501   0.0000
     4 C9          18.1990   -22.9380   -46.0510 C.ar         1 ACJ501   0.0000
     5 C14         18.8690   -22.0180   -48.1620 C.ar         1 ACJ501   0.0000
     6 C8          19.2900   -23.7830   -46.1060 C.ar         1 ACJ501   0.0000
     7 N1          18.7560   -21.1450   -49.2870 N.2          1 ACJ501   1.0000
     8 C13         19.9640   -22.8650   -48.1810 C.ar         1 ACJ501   0.0000
     9 O5          19.6450   -21.1960   -50.2490 O.co2        1 ACJ501   0.0000
    10 C12         20.1780   -23.7550   -47.1520 C.ar         1 ACJ501   0.0000
    11 O1          19.5510   -24.6620   -45.1080 O.3          1 ACJ501   0.0000
    12 C7          18.5020   -24.9590   -44.2580 C.ar         1 ACJ501   0.0000
    13 O4          17.7810   -20.3000   -49.3750 O.co2        1 ACJ501  -1.0000
    14 C6          18.3730   -24.2600   -43.0660 C.ar         1 ACJ501   0.0000
    15 C10         17.9700   -22.0440   -47.0850 C.ar         1 ACJ501   0.0000
    16 C4          17.6340   -26.0060   -44.5540 C.ar         1 ACJ501   0.0000
    17 C5          17.3590   -24.5890   -42.1890 C.ar         1 ACJ501   0.0000
    18 C2          16.4850   -25.6240   -42.4960 C.ar         1 ACJ501   0.0000
    19 CL1         17.8350   -26.8830   -46.0260 Cl           1 ACJ501   0.0000
    20 C3          16.6170   -26.3400   -43.6790 C.ar         1 ACJ501   0.0000
    21 C1          15.3900   -25.9630   -41.5410 C.3          1 ACJ501   0.0000
    22 F1          14.2770   -26.2720   -42.2050 F            1 ACJ501   0.0000
    23 F2          15.1470   -24.9290   -40.7380 F            1 ACJ501   0.0000
    24 F3          15.7940   -27.0060   -40.8280 F            1 ACJ501   0.0000
    25 H1          17.5771   -22.9711   -45.2686 H            1 ACJ501   0.0000
    26 H2          20.6047   -22.8303   -48.9480 H            1 ACJ501   0.0000
    27 H3          20.9665   -24.3699   -47.1668 H            1 ACJ501   0.0000
    28 H4          19.0107   -23.5225   -42.8438 H            1 ACJ501   0.0000
    29 H5          17.2537   -24.0825   -41.3332 H            1 ACJ501   0.0000
    30 H6          15.9862   -27.0855   -43.8944 H            1 ACJ501   0.0000
    31 H7          17.0240   -20.1947   -48.6207 H            1 ACJ501   0.0000
@<TRIPOS>BOND
     1    1    2       1
     2    2    3       2
     3    2   15       1
     4    4    6      ar
     5    4   15      ar
     6    5    7       1
     7    5    8      ar
     8    5   15      ar
     9    6   10      ar
    10    6   11       1
    11    7    9      ar
    12    7   13      ar
    13    8   10      ar
    14   11   12       1
    15   12   14      ar
    16   12   16      ar
    17   14   17      ar
    18   16   19       1
    19   16   20      ar
    20   17   18      ar
    21   18   20      ar
    22   18   21       1
    23   21   22       1
    24   21   23       1
    25   21   24       1
    26   20   30       1
    27    4   25       1
    28    8   26       1
    29   10   27       1
    30   14   28       1
    31   17   29       1
    32    1   31       1
@<TRIPOS>SUBSTRUCTURE
     1 ACJ501      1 GROUP             4 B     ACJ     0 **** ACJ B 501
