@<TRIPOS>MOLECULE
4l02_1V2_2_ligand
   57    60     1     0     0
SMALL
NO_CHARGES


@<TRIPOS>ATOM
     1 C13         28.1180    79.8700     4.2990 C.ar         1 1V2401   0.0000
     2 C14         26.8060    79.4340     4.4260 C.ar         1 1V2401   0.0000
     3 CL1         25.6470    79.7940     3.2040 Cl           1 1V2401   0.0000
     4 C15         26.4070    78.7040     5.5350 C.ar         1 1V2401   0.0000
     5 CL2         24.7590    78.1900     5.6380 Cl           1 1V2401   0.0000
     6 C16         27.3240    78.3980     6.5390 C.ar         1 1V2401   0.0000
     7 C17         28.6420    78.8310     6.4140 C.ar         1 1V2401   0.0000
     8 C12         29.0420    79.5640     5.2930 C.ar         1 1V2401   0.0000
     9 C11         30.3530    80.0120     5.1650 C.2          1 1V2401   0.0000
    10 N3          30.7630    80.7830     4.1280 N.2          1 1V2401   0.0000
    11 C10         31.3130    79.7400     6.0690 C.2          1 1V2401   0.0000
    12 S1          32.7280    80.4840     5.5360 S.3          1 1V2401   0.0000
    13 C9          32.0510    81.1330     4.1540 C.2          1 1V2401   0.0000
    14 N1          32.7120    81.8840     3.2650 N.pl3        1 1V2401   0.0000
    15 C1          32.4270    82.0240     1.9610 C.ar         1 1V2401   0.0000
    16 C3          33.1180    83.0020     1.2450 C.ar         1 1V2401   0.0000
    17 C5          32.8760    83.2020    -0.1140 C.ar         1 1V2401   0.0000
    18 C2          31.4830    81.2360     1.2950 C.ar         1 1V2401   0.0000
    19 C4          31.2380    81.4350    -0.0650 C.ar         1 1V2401   0.0000
    20 C6          31.9300    82.4180    -0.7720 C.ar         1 1V2401   0.0000
    21 C7          31.6750    82.6320    -2.2680 C.3          1 1V2401   0.0000
    22 C8          30.3590    83.3660    -2.5530 C.3          1 1V2401   0.0000
    23 N2          30.2700    83.8630    -3.9470 N.4          1 1V2401   1.0000
    24 C22         31.1050    83.0340    -4.8500 C.3          1 1V2401   0.0000
    25 C21         31.0150    83.5230    -6.3010 C.3          1 1V2401   0.0000
    26 C20         29.5640    83.5460    -6.7860 C.3          1 1V2401   0.0000
    27 O2          29.5150    84.1060    -8.1000 O.3          1 1V2401   0.0000
    28 C19         28.7120    84.3920    -5.8280 C.3          1 1V2401   0.0000
    29 C18         28.8480    83.8530    -4.3890 C.3          1 1V2401   0.0000
    30 C23         27.9390    84.6560    -3.4370 C.3          1 1V2401   0.0000
    31 O1          28.3640    86.0170    -3.3310 O.3          1 1V2401   0.0000
    32 H1          28.3969    80.4004     3.4985 H            1 1V2401   0.0000
    33 H2          27.0387    77.8730     7.3408 H            1 1V2401   0.0000
    34 H3          29.3059    78.6162     7.1303 H            1 1V2401   0.0000
    35 H4          31.2062    79.1972     6.9021 H            1 1V2401   0.0000
    36 H5          33.5006    82.3941     3.6082 H            1 1V2401   0.0000
    37 H6          33.7967    83.5679     1.7130 H            1 1V2401   0.0000
    38 H7          33.3798    83.9059    -0.6148 H            1 1V2401   0.0000
    39 H8          30.9824    80.5285     1.7939 H            1 1V2401   0.0000
    40 H9          30.5614    80.8686    -0.5356 H            1 1V2401   0.0000
    41 H10         31.6454    81.7390    -2.7171 H            1 1V2401   0.0000
    42 H11         32.4283    83.1703    -2.6458 H            1 1V2401   0.0000
    43 H12         30.2862    84.1452    -1.9305 H            1 1V2401   0.0000
    44 H13         29.5997    82.7363    -2.3890 H            1 1V2401   0.0000
    45 H14         30.7895    82.0861    -4.8059 H            1 1V2401   0.0000
    46 H15         32.0573    83.0828    -4.5487 H            1 1V2401   0.0000
    47 H16         31.5451    82.9091    -6.8859 H            1 1V2401   0.0000
    48 H17         31.3931    84.4470    -6.3582 H            1 1V2401   0.0000
    49 H18         29.2075    82.6120    -6.8100 H            1 1V2401   0.0000
    50 H19         29.1311    83.4349    -8.7343 H            1 1V2401   0.0000
    51 H20         27.7535    84.3475    -6.1095 H            1 1V2401   0.0000
    52 H21         29.0242    85.3416    -5.8573 H            1 1V2401   0.0000
    53 H22         28.5327    82.9040    -4.3860 H            1 1V2401   0.0000
    54 H23         27.9661    84.2355    -2.5301 H            1 1V2401   0.0000
    55 H24         27.0024    84.6343    -3.7867 H            1 1V2401   0.0000
    56 H25         29.0195    86.1041    -2.5808 H            1 1V2401   0.0000
    57 H26         30.6069    84.8042    -3.9735 H            1 1V2401   0.0000
@<TRIPOS>BOND
     1    1    2      ar
     2    1    8      ar
     3    2    3       1
     4    2    4      ar
     5    4    5       1
     6    4    6      ar
     7    6    7      ar
     8    7    8      ar
     9    8    9       1
    10    9   10       1
    11    9   11       2
    12   10   13       2
    13   11   12       1
    14   12   13       1
    15   13   14       1
    16   14   15       1
    17   15   16      ar
    18   15   18      ar
    19   16   17      ar
    20   17   20      ar
    21   18   19      ar
    22   19   20      ar
    23   20   21       1
    24   21   22       1
    25   22   23       1
    26   23   24       1
    27   23   29       1
    28   24   25       1
    29   25   26       1
    30   26   27       1
    31   26   28       1
    32   28   29       1
    33   29   30       1
    34   30   31       1
    35    1   32       1
    36    6   33       1
    37    7   34       1
    38   11   35       1
    39   14   36       1
    40   16   37       1
    41   17   38       1
    42   18   39       1
    43   19   40       1
    44   21   41       1
    45   21   42       1
    46   22   43       1
    47   22   44       1
    48   24   45       1
    49   24   46       1
    50   25   47       1
    51   25   48       1
    52   26   49       1
    53   27   50       1
    54   28   51       1
    55   28   52       1
    56   29   53       1
    57   30   54       1
    58   30   55       1
    59   31   56       1
    60   23   57       1
@<TRIPOS>SUBSTRUCTURE
     1 1V2401      1 GROUP             4 B     1V2     0 **** 1V2 B 401
