@<TRIPOS>MOLECULE
1akc_PPE_1_ligand
   41    41     1     0     0
SMALL
NO_CHARGES


@<TRIPOS>ATOM
     1 N1          43.6900    15.7800    44.9460 N.ar         1 PPE411   1.0000
     2 C2          44.9820    15.4560    45.2620 C.ar         1 PPE411   0.0000
     3 C2A         45.3850    16.2080    46.5150 C.3          1 PPE411   0.0000
     4 C3          45.6840    14.5200    44.4140 C.ar         1 PPE411   0.0000
     5 O3          46.9510    14.3020    44.8570 O.3          1 PPE411  -1.0000
     6 C4          45.1270    13.9530    43.2710 C.ar         1 PPE411   0.0000
     7 C4A         45.9100    12.9910    42.3880 C.3          1 PPE411   0.0000
     8 C5          43.7830    14.3830    43.0690 C.ar         1 PPE411   0.0000
     9 C6          43.0780    15.2630    43.8630 C.ar         1 PPE411   0.0000
    10 C5A         42.9440    13.9280    41.8700 C.3          1 PPE411   0.0000
    11 OP4         43.3040    12.7640    41.2240 O.3          1 PPE411   0.0000
    12 P           42.3560    12.0190    40.1660 P.3          1 PPE411   0.0000
    13 OP1         41.2150    11.3920    40.7830 O.co2        1 PPE411   0.0000
    14 OP2         43.3120    11.2350    39.2880 O.co2        1 PPE411  -1.0000
    15 OP3         41.7450    13.1640    39.3920 O.co2        1 PPE411  -1.0000
    16 NA          47.3350    13.5140    42.5080 N.4          1 PPE411   1.0000
    17 CAA         48.3140    12.3790    42.4000 C.3          1 PPE411   0.0000
    18 CBA         48.0490    11.5410    41.1570 C.3          1 PPE411   0.0000
    19 CGA         48.6200    12.1200    39.8730 C.3          1 PPE411   0.0000
    20 CDA         47.9090    13.4110    39.5120 C.2          1 PPE411   0.0000
    21 OE1         48.4320    14.4280    39.9100 O.co2        1 PPE411   0.0000
    22 OE2         46.8930    13.2480    38.8120 O.co2        1 PPE411  -1.0000
    23 CA          49.7570    12.9090    42.4280 C.2          1 PPE411   0.0000
    24 OA          49.8220    14.0840    43.1160 O.co2        1 PPE411   0.0000
    25 OXT         50.7930    12.2900    41.8960 O.co2        1 PPE411  -1.0000
    26 H2A1        46.3283    15.9771    46.7534 H            1 PPE411   0.0000
    27 H2A2        45.3140    17.1918    46.3507 H            1 PPE411   0.0000
    28 H2A3        44.7786    15.9511    47.2675 H            1 PPE411   0.0000
    29 H4A1        45.5903    13.0286    41.4412 H            1 PPE411   0.0000
    30 H4A2        45.8403    12.0526    42.7263 H            1 PPE411   0.0000
    31 H6          42.1353    15.5113    43.6402 H            1 PPE411   0.0000
    32 H5A1        42.9722    14.6633    41.1928 H            1 PPE411   0.0000
    33 H5A2        42.0054    13.8088    42.1937 H            1 PPE411   0.0000
    34 HA1         47.4481    13.9649    43.3934 H            1 PPE411   0.0000
    35 HAA         48.1889    11.7900    43.1984 H            1 PPE411   0.0000
    36 HBA1        47.0592    11.4512    41.0460 H            1 PPE411   0.0000
    37 HBA2        48.4520    10.6368    41.2982 H            1 PPE411   0.0000
    38 HGA1        48.4999    11.4595    39.1319 H            1 PPE411   0.0000
    39 HGA2        49.5945    12.3050    39.9999 H            1 PPE411   0.0000
    40 HA2         47.5087    14.1712    41.7746 H            1 PPE411   0.0000
    41 H16         43.1886    16.4156    45.5331 H            1 PPE411   0.0000
@<TRIPOS>BOND
     1    1    2      ar
     2    1    9      ar
     3    2    3       1
     4    2    4      ar
     5    4    5       1
     6    4    6      ar
     7    6    7       1
     8    6    8      ar
     9    7   16       1
    10    8    9      ar
    11    8   10       1
    12   10   11       1
    13   11   12       1
    14   12   13      ar
    15   12   14      ar
    16   12   15      ar
    17   16   17       1
    18   17   18       1
    19   17   23       1
    20   18   19       1
    21   19   20       1
    22   20   21      ar
    23   20   22      ar
    24   23   24      ar
    25   23   25      ar
    26    3   26       1
    27    3   27       1
    28    3   28       1
    29    1   41       1
    30    7   29       1
    31    7   30       1
    32    9   31       1
    33   10   32       1
    34   10   33       1
    35   19   39       1
    36   16   40       1
    37   16   34       1
    38   17   35       1
    39   18   36       1
    40   18   37       1
    41   19   38       1
@<TRIPOS>SUBSTRUCTURE
     1 PPE411      1 GROUP             4 A     PPE     0 **** PPE A 411
