@<TRIPOS>MOLECULE
3a14_NDP_3_ligand
   73    77     1     0     0
SMALL
NO_CHARGES


@<TRIPOS>ATOM
     1 PA          14.7390    25.0810     8.6550 P.3          1 NDP3002   0.0000
     2 O1A         13.4900    25.7460     8.1810 O.co2        1 NDP3002   0.0000
     3 O2A         16.1390    25.8360     8.2170 O.co2        1 NDP3002  -1.0000
     4 O5B         14.7610    23.5670     8.0880 O.3          1 NDP3002   0.0000
     5 C5B         13.7310    22.6500     8.5030 C.3          1 NDP3002   0.0000
     6 C4B         13.8520    21.2810     7.8090 C.3          1 NDP3002   0.0000
     7 O4B         12.6240    20.5120     7.9970 O.3          1 NDP3002   0.0000
     8 C3B         14.0540    21.4640     6.2940 C.3          1 NDP3002   0.0000
     9 O3B         14.9630    20.4620     5.8230 O.3          1 NDP3002   0.0000
    10 C2B         12.6480    21.2580     5.7190 C.3          1 NDP3002   0.0000
    11 O2B         12.6960    20.6700     4.4140 O.3          1 NDP3002   0.0000
    12 C1B         12.0420    20.2350     6.6840 C.3          1 NDP3002   0.0000
    13 N9A         10.5790    20.4360     6.8130 N.pl3        1 NDP3002   0.0000
    14 C8A          9.8930    21.5760     6.6300 C.2          1 NDP3002   0.0000
    15 N7A          8.5980    21.3450     6.8560 N.2          1 NDP3002   0.0000
    16 C5A          8.4640    20.0660     7.1840 C.ar         1 NDP3002   0.0000
    17 C6A          7.3770    19.2650     7.5140 C.ar         1 NDP3002   0.0000
    18 N6A          6.1550    19.7820     7.5460 N.pl3        1 NDP3002   0.0000
    19 N1A          7.5840    17.9660     7.7940 N.ar         1 NDP3002   0.0000
    20 C2A          8.8110    17.4410     7.7560 C.ar         1 NDP3002   0.0000
    21 N3A          9.8730    18.1770     7.4420 N.ar         1 NDP3002   0.0000
    22 C4A          9.7220    19.4850     7.1570 C.ar         1 NDP3002   0.0000
    23 O3          14.7690    24.9870    10.3000 O.3          1 NDP3002   0.0000
    24 PN          16.1470    24.8490    11.2030 P.3          1 NDP3002   0.0000
    25 O1N         16.7810    26.1660    11.4630 O.co2        1 NDP3002   0.0000
    26 O2N         17.1710    23.7830    10.4990 O.co2        1 NDP3002  -1.0000
    27 O5D         15.7490    24.0890    12.5650 O.3          1 NDP3002   0.0000
    28 C5D         14.7100    23.1140    12.6300 C.3          1 NDP3002   0.0000
    29 C4D         14.3590    22.8560    14.0940 C.3          1 NDP3002   0.0000
    30 O4D         15.6150    23.0600    14.8490 O.3          1 NDP3002   0.0000
    31 C3D         13.3500    23.8520    14.6640 C.3          1 NDP3002   0.0000
    32 O3D         12.5860    23.2160    15.6990 O.3          1 NDP3002   0.0000
    33 C2D         14.2500    24.9150    15.2870 C.3          1 NDP3002   0.0000
    34 O2D         13.5680    25.6490    16.3060 O.3          1 NDP3002   0.0000
    35 C1D         15.3310    24.0290    15.9040 C.3          1 NDP3002   0.0000
    36 N1N         16.5430    24.8000    16.2440 N.ar         1 NDP3002   1.0000
    37 C2N         17.1620    25.5790    15.2660 C.ar         1 NDP3002   0.0000
    38 C3N         18.2960    26.3140    15.5670 C.ar         1 NDP3002   0.0000
    39 C7N         18.9410    27.1660    14.4660 C.2          1 NDP3002   0.0000
    40 O7N         19.9520    27.8300    14.6870 O.2          1 NDP3002   0.0000
    41 N7N         18.3310    27.1270    13.2830 N.am         1 NDP3002   0.0000
    42 C4N         18.9120    26.2740    16.9820 C.ar         1 NDP3002   0.0000
    43 C5N         18.2140    25.4570    17.8780 C.ar         1 NDP3002   0.0000
    44 C6N         17.0670    24.7390    17.5440 C.ar         1 NDP3002   0.0000
    45 P2B         12.6740    21.5720     3.0580 P.3          1 NDP3002   0.0000
    46 O1X         13.7900    22.5410     2.9730 O.co2        1 NDP3002   0.0000
    47 O2X         12.6480    20.4840     1.9080 O.co2        1 NDP3002  -1.0000
    48 O3X         11.2510    22.2760     2.9800 O.co2        1 NDP3002  -1.0000
    49 H5B1        12.8399    23.0455     8.2806 H            1 NDP3002   0.0000
    50 H5B2        13.7990    22.5163     9.4917 H            1 NDP3002   0.0000
    51 H4B         14.6259    20.7771     8.1926 H            1 NDP3002   0.0000
    52 H3B         14.3942    22.3812     6.0868 H            1 NDP3002   0.0000
    53 H5          15.1006    20.5729     4.8387 H            1 NDP3002   0.0000
    54 H2B         12.1261    22.1110     5.7162 H            1 NDP3002   0.0000
    55 H1B         12.2496    19.3016     6.3913 H            1 NDP3002   0.0000
    56 H8A         10.2886    22.4559     6.3669 H            1 NDP3002   0.0000
    57 H6A1         5.3739    19.2046     7.7836 H            1 NDP3002   0.0000
    58 H6A2         6.0154    20.7489     7.3325 H            1 NDP3002   0.0000
    59 H2A          8.9342    16.4717     7.9686 H            1 NDP3002   0.0000
    60 H5D1        15.0213    22.2639    12.2053 H            1 NDP3002   0.0000
    61 H5D2        13.9026    23.4521    12.1465 H            1 NDP3002   0.0000
    62 H4D         14.0292    21.9195    14.2132 H            1 NDP3002   0.0000
    63 H3D         12.7626    24.2345    13.9508 H            1 NDP3002   0.0000
    64 H16         11.6724    23.6209    15.7356 H            1 NDP3002   0.0000
    65 H2D         14.6307    25.5242    14.5913 H            1 NDP3002   0.0000
    66 H18         14.1847    26.3351    16.6920 H            1 NDP3002   0.0000
    67 H1D         14.9768    23.5642    16.7155 H            1 NDP3002   0.0000
    68 H2N         16.7838    25.6067    14.3407 H            1 NDP3002   0.0000
    69 H7N1        18.6932    27.6567    12.5160 H            1 NDP3002   0.0000
    70 H7N2        17.5107    26.5680    13.1616 H            1 NDP3002   0.0000
    71 H4N         19.7338    26.7847    17.2347 H            1 NDP3002   0.0000
    72 H5N         18.5586    25.3838    18.8139 H            1 NDP3002   0.0000
    73 H6N         16.6144    24.1764    18.2358 H            1 NDP3002   0.0000
@<TRIPOS>BOND
     1    1    2      ar
     2    1    3      ar
     3    1    4       1
     4    1   23       1
     5    4    5       1
     6    5    6       1
     7    6    7       1
     8    6    8       1
     9    7   12       1
    10    8    9       1
    11    8   10       1
    12   10   11       1
    13   10   12       1
    14   11   45       1
    15   12   13       1
    16   13   14       1
    17   13   22       1
    18   14   15       2
    19   15   16       1
    20   16   17      ar
    21   16   22      ar
    22   17   18       1
    23   17   19      ar
    24   19   20      ar
    25   20   21      ar
    26   21   22      ar
    27   23   24       1
    28   24   25      ar
    29   24   26      ar
    30   24   27       1
    31   27   28       1
    32   28   29       1
    33   29   30       1
    34   29   31       1
    35   30   35       1
    36   31   32       1
    37   31   33       1
    38   33   34       1
    39   33   35       1
    40   35   36       1
    41   36   37      ar
    42   36   44      ar
    43   37   38      ar
    44   38   39       1
    45   38   42      ar
    46   39   40       2
    47   39   41      am
    48   42   43      ar
    49   43   44      ar
    50   45   46      ar
    51   45   47      ar
    52   45   48      ar
    53   43   72       1
    54    5   49       1
    55    5   50       1
    56    6   51       1
    57    8   52       1
    58    9   53       1
    59   10   54       1
    60   12   55       1
    61   14   56       1
    62   18   57       1
    63   18   58       1
    64   20   59       1
    65   44   73       1
    66   28   60       1
    67   28   61       1
    68   29   62       1
    69   31   63       1
    70   32   64       1
    71   33   65       1
    72   34   66       1
    73   35   67       1
    74   37   68       1
    75   41   69       1
    76   41   70       1
    77   42   71       1
@<TRIPOS>SUBSTRUCTURE
     1 NDP3002     1 GROUP             4 B     NDP     0 **** NDP B3002
