@<TRIPOS>MOLECULE
3ak4_NAD_4_ligand
   70    74     1     0     0
SMALL
NO_CHARGES


@<TRIPOS>ATOM
     1 PA         -56.8220    -5.3380   -14.9750 P.3          1 NAD904   0.0000
     2 O1A        -56.6110    -6.6230   -14.2330 O.co2        1 NAD904   0.0000
     3 O2A        -58.1710    -4.9560   -15.5150 O.co2        1 NAD904  -1.0000
     4 O5B        -55.7280    -5.2550   -16.1730 O.3          1 NAD904   0.0000
     5 C5B        -54.3310    -5.5140   -15.9400 C.3          1 NAD904   0.0000
     6 C4B        -53.6200    -5.9160   -17.2340 C.3          1 NAD904   0.0000
     7 O4B        -52.2980    -6.3490   -16.8820 O.3          1 NAD904   0.0000
     8 C3B        -54.2980    -7.1160   -17.9050 C.3          1 NAD904   0.0000
     9 O3B        -54.3370    -6.8390   -19.3100 O.3          1 NAD904   0.0000
    10 C2B        -53.4140    -8.3120   -17.5640 C.3          1 NAD904   0.0000
    11 O2B        -53.4980    -9.3880   -18.5270 O.3          1 NAD904   0.0000
    12 C1B        -52.0370    -7.6320   -17.4550 C.3          1 NAD904   0.0000
    13 N9A        -51.0590    -8.4560   -16.6710 N.pl3        1 NAD904   0.0000
    14 C8A        -51.1920    -8.9560   -15.4190 C.2          1 NAD904   0.0000
    15 N7A        -50.0780    -9.6780   -15.1190 N.2          1 NAD904   0.0000
    16 C5A        -49.2520    -9.6340   -16.2060 C.ar         1 NAD904   0.0000
    17 C6A        -47.9910   -10.1650   -16.5130 C.ar         1 NAD904   0.0000
    18 N6A        -47.2850   -10.9450   -15.6260 N.pl3        1 NAD904   0.0000
    19 N1A        -47.4590    -9.8940   -17.7340 N.ar         1 NAD904   0.0000
    20 C2A        -48.0880    -9.1430   -18.6590 C.ar         1 NAD904   0.0000
    21 N3A        -49.2940    -8.6400   -18.4040 N.ar         1 NAD904   0.0000
    22 C4A        -49.8870    -8.8630   -17.1790 C.ar         1 NAD904   0.0000
    23 O3         -56.3080    -4.1050   -13.9910 O.3          1 NAD904   0.0000
    24 PN         -56.6480    -2.4890   -14.0040 P.3          1 NAD904   0.0000
    25 O1N        -56.8540    -1.8700   -15.3640 O.co2        1 NAD904   0.0000
    26 O2N        -57.6790    -2.1720   -12.9460 O.co2        1 NAD904  -1.0000
    27 O5D        -55.2470    -1.9400   -13.3900 O.3          1 NAD904   0.0000
    28 C5D        -54.1440    -1.5620   -14.2450 C.3          1 NAD904   0.0000
    29 C4D        -53.0140    -0.8600   -13.4700 C.3          1 NAD904   0.0000
    30 O4D        -53.5350     0.1810   -12.6260 O.3          1 NAD904   0.0000
    31 C3D        -52.2730    -1.8230   -12.5380 C.3          1 NAD904   0.0000
    32 O3D        -50.8800    -1.4350   -12.5170 O.3          1 NAD904   0.0000
    33 C2D        -52.9730    -1.5980   -11.1890 C.3          1 NAD904   0.0000
    34 O2D        -52.1950    -2.0710   -10.0740 O.3          1 NAD904   0.0000
    35 C1D        -53.2620    -0.0900   -11.2330 C.3          1 NAD904   0.0000
    36 N1N        -54.3340     0.4730   -10.3710 N.ar         1 NAD904   1.0000
    37 C2N        -55.6320     0.0790   -10.4930 C.ar         1 NAD904   0.0000
    38 C3N        -56.6460     0.6340    -9.6820 C.ar         1 NAD904   0.0000
    39 C7N        -58.1000     0.1740    -9.8060 C.2          1 NAD904   0.0000
    40 O7N        -58.8830     0.2920    -8.8630 O.2          1 NAD904   0.0000
    41 N7N        -58.5260    -0.3630   -10.9480 N.am         1 NAD904   0.0000
    42 C4N        -56.2740     1.6120    -8.7410 C.ar         1 NAD904   0.0000
    43 C5N        -54.9330     2.0100    -8.6280 C.ar         1 NAD904   0.0000
    44 C6N        -53.9810     1.4270    -9.4710 C.ar         1 NAD904   0.0000
    45 H5B1       -54.2431    -6.2560   -15.2754 H            1 NAD904   0.0000
    46 H5B2       -53.9023    -4.6874   -15.5754 H            1 NAD904   0.0000
    47 H4B        -53.5775    -5.1410   -17.8646 H            1 NAD904   0.0000
    48 H3B        -55.2219    -7.2460   -17.5452 H            1 NAD904   0.0000
    49 H5         -53.4049    -6.7213   -19.6525 H            1 NAD904   0.0000
    50 H2B        -53.6748    -8.6615   -16.6641 H            1 NAD904   0.0000
    51 H7         -53.2142    -9.0539   -19.4258 H            1 NAD904   0.0000
    52 H1B        -51.6738    -7.5001   -18.3774 H            1 NAD904   0.0000
    53 H8A        -51.9776    -8.8177   -14.8159 H            1 NAD904   0.0000
    54 H6A1       -46.3880   -11.3058   -15.8815 H            1 NAD904   0.0000
    55 H6A2       -47.6689   -11.1510   -14.7259 H            1 NAD904   0.0000
    56 H2A        -47.6481    -8.9631   -19.5388 H            1 NAD904   0.0000
    57 H5D1       -54.4834    -0.9404   -14.9510 H            1 NAD904   0.0000
    58 H5D2       -53.7746    -2.3855   -14.6755 H            1 NAD904   0.0000
    59 H4D        -52.3648    -0.4643   -14.1195 H            1 NAD904   0.0000
    60 H3D        -52.3774    -2.7696   -12.8432 H            1 NAD904   0.0000
    61 H17        -50.5046    -1.4903   -13.4422 H            1 NAD904   0.0000
    62 H2D        -53.8445    -2.0883   -11.1983 H            1 NAD904   0.0000
    63 H19        -52.0312    -3.0524   -10.1742 H            1 NAD904   0.0000
    64 H1D        -52.4126     0.3828   -10.9987 H            1 NAD904   0.0000
    65 H2N        -55.8716    -0.6168   -11.1701 H            1 NAD904   0.0000
    66 H7N1       -59.4752    -0.6654   -11.0349 H            1 NAD904   0.0000
    67 H7N2       -57.8966    -0.4637   -11.7186 H            1 NAD904   0.0000
    68 H4N        -56.9677     2.0248    -8.1507 H            1 NAD904   0.0000
    69 H5N        -54.6624     2.6991    -7.9558 H            1 NAD904   0.0000
    70 H6N        -53.0259     1.7171    -9.4101 H            1 NAD904   0.0000
@<TRIPOS>BOND
     1    1    2      ar
     2    1    3      ar
     3    1    4       1
     4    1   23       1
     5    4    5       1
     6    5    6       1
     7    6    7       1
     8    6    8       1
     9    7   12       1
    10    8    9       1
    11    8   10       1
    12   10   11       1
    13   10   12       1
    14   12   13       1
    15   13   14       1
    16   13   22       1
    17   14   15       2
    18   15   16       1
    19   16   17      ar
    20   16   22      ar
    21   17   18       1
    22   17   19      ar
    23   19   20      ar
    24   20   21      ar
    25   21   22      ar
    26   23   24       1
    27   24   25      ar
    28   24   26      ar
    29   24   27       1
    30   27   28       1
    31   28   29       1
    32   29   30       1
    33   29   31       1
    34   30   35       1
    35   31   32       1
    36   31   33       1
    37   33   34       1
    38   33   35       1
    39   35   36       1
    40   36   37      ar
    41   36   44      ar
    42   37   38      ar
    43   38   39       1
    44   38   42      ar
    45   39   40       2
    46   39   41      am
    47   42   43      ar
    48   43   44      ar
    49   44   70       1
    50    5   45       1
    51    5   46       1
    52    6   47       1
    53    8   48       1
    54    9   49       1
    55   10   50       1
    56   11   51       1
    57   12   52       1
    58   14   53       1
    59   18   54       1
    60   18   55       1
    61   20   56       1
    62   43   69       1
    63   28   57       1
    64   28   58       1
    65   29   59       1
    66   31   60       1
    67   32   61       1
    68   33   62       1
    69   34   63       1
    70   35   64       1
    71   37   65       1
    72   41   66       1
    73   41   67       1
    74   42   68       1
@<TRIPOS>SUBSTRUCTURE
     1 NAD904      1 GROUP             4 D     NAD     0 **** NAD D 904
