@<TRIPOS>MOLECULE
3gz3_ORO_1_ligand
   14    14     1     0     0
SMALL
NO_CHARGES


@<TRIPOS>ATOM
     1 N1          51.6550   -21.9290   -14.7460 N.pl3        1 ORO322   0.0000
     2 C2          52.0080   -21.1360   -13.7140 C.2          1 ORO322   0.0000
     3 O2          51.1600   -20.9480   -12.7950 O.2          1 ORO322   0.0000
     4 N3          53.2500   -20.5810   -13.6870 N.pl3        1 ORO322   0.0000
     5 C4          54.1500   -20.8110   -14.6710 C.2          1 ORO322   0.0000
     6 O4          55.3090   -20.3100   -14.6660 O.2          1 ORO322   0.0000
     7 C5          53.7960   -21.6200   -15.7440 C.2          1 ORO322   0.0000
     8 C6          52.5160   -22.1670   -15.7470 C.2          1 ORO322   0.0000
     9 C7          52.1030   -23.0620   -16.8600 C.2          1 ORO322   0.0000
    10 O71         52.5010   -22.8370   -18.0160 O.co2        1 ORO322   0.0000
    11 O72         51.3900   -24.0440   -16.5370 O.co2        1 ORO322  -1.0000
    12 H1          50.7448   -22.3427   -14.7653 H            1 ORO322   0.0000
    13 H2          53.5037   -19.9892   -12.9219 H            1 ORO322   0.0000
    14 H3          54.4385   -21.8028   -16.4881 H            1 ORO322   0.0000
@<TRIPOS>BOND
     1    1    2       1
     2    1    8       1
     3    2    3       2
     4    2    4       1
     5    4    5       1
     6    5    6       2
     7    5    7       1
     8    7    8       2
     9    8    9       1
    10    9   10      ar
    11    9   11      ar
    12    1   12       1
    13    4   13       1
    14    7   14       1
@<TRIPOS>SUBSTRUCTURE
     1 ORO322      1 GROUP             4 A     ORO     0 **** ORO A 322
