@<TRIPOS>MOLECULE
3pzr_NAP_2_ligand
   73    77     1     0     0
SMALL
NO_CHARGES


@<TRIPOS>ATOM
     1 PA          26.6410    57.8140    -6.0470 P.3          1 NAP372   0.0000
     2 O1A         26.5630    56.7740    -4.9960 O.co2        1 NAP372   0.0000
     3 O2A         26.6490    57.2150    -7.4020 O.co2        1 NAP372  -1.0000
     4 O5B         25.4100    58.8280    -5.8740 O.3          1 NAP372   0.0000
     5 C5B         25.2530    59.9250    -6.7410 C.3          1 NAP372   0.0000
     6 C4B         23.8300    59.9580    -7.2880 C.3          1 NAP372   0.0000
     7 O4B         23.5460    58.8600    -8.1320 O.3          1 NAP372   0.0000
     8 C3B         22.7570    59.8920    -6.2150 C.3          1 NAP372   0.0000
     9 O3B         22.5400    61.1570    -5.6470 O.3          1 NAP372   0.0000
    10 C2B         21.5480    59.4210    -6.9920 C.3          1 NAP372   0.0000
    11 O2B         20.8970    60.5480    -7.5210 O.3          1 NAP372   0.0000
    12 C1B         22.1430    58.6360    -8.1490 C.3          1 NAP372   0.0000
    13 N9A         21.8380    57.1900    -8.0590 N.pl3        1 NAP372   0.0000
    14 C8A         21.6480    56.3750    -9.1460 C.2          1 NAP372   0.0000
    15 N7A         21.3920    55.1190    -8.7190 N.2          1 NAP372   0.0000
    16 C5A         21.4150    55.1090    -7.3680 C.ar         1 NAP372   0.0000
    17 C6A         21.2180    54.0920    -6.4350 C.ar         1 NAP372   0.0000
    18 N6A         20.9500    52.8510    -6.8360 N.pl3        1 NAP372   0.0000
    19 N1A         21.3000    54.3710    -5.0840 N.ar         1 NAP372   0.0000
    20 C2A         21.5780    55.6570    -4.6630 C.ar         1 NAP372   0.0000
    21 N3A         21.7720    56.6590    -5.5950 N.ar         1 NAP372   0.0000
    22 C4A         21.6950    56.4020    -6.9320 C.ar         1 NAP372   0.0000
    23 O3          27.9480    58.7300    -5.8210 O.3          1 NAP372   0.0000
    24 PN          28.9190    58.9210    -4.5460 P.3          1 NAP372   0.0000
    25 O1N         28.0730    59.1840    -3.3600 O.co2        1 NAP372   0.0000
    26 O2N         29.9110    57.8170    -4.5190 O.co2        1 NAP372  -1.0000
    27 O5D         29.7180    60.2720    -4.9060 O.3          1 NAP372   0.0000
    28 C5D         29.0120    61.4170    -5.3250 C.3          1 NAP372   0.0000
    29 C4D         29.9610    62.5500    -5.6980 C.3          1 NAP372   0.0000
    30 O4D         30.8380    62.8630    -4.6270 O.3          1 NAP372   0.0000
    31 C3D         30.8500    62.2080    -6.8820 C.3          1 NAP372   0.0000
    32 O3D         30.2510    62.4910    -8.1250 O.3          1 NAP372   0.0000
    33 C2D         32.0720    63.0650    -6.6220 C.3          1 NAP372   0.0000
    34 O2D         31.9040    64.3650    -7.1370 O.3          1 NAP372   0.0000
    35 C1D         32.1540    63.1060    -5.1020 C.3          1 NAP372   0.0000
    36 N1N         33.0500    62.0190    -4.6590 N.ar         1 NAP372   1.0000
    37 C2N         33.8760    61.4250    -5.5800 C.ar         1 NAP372   0.0000
    38 C3N         34.7280    60.3860    -5.2330 C.ar         1 NAP372   0.0000
    39 C7N         35.0840    59.4320    -6.3340 C.2          1 NAP372   0.0000
    40 O7N         36.3870    59.4609    -6.8773 O.2          1 NAP372   0.0000
    41 N7N         34.1565    58.5824    -6.7755 N.am         1 NAP372   0.0000
    42 C4N         34.7420    59.9580    -3.9040 C.ar         1 NAP372   0.0000
    43 C5N         33.9090    60.5630    -2.9620 C.ar         1 NAP372   0.0000
    44 C6N         33.0610    61.6000    -3.3540 C.ar         1 NAP372   0.0000
    45 P2B         19.2950    60.6710    -7.5610 P.3          1 NAP372   0.0000
    46 O1X         18.9610    62.0620    -8.0470 O.co2        1 NAP372   0.0000
    47 O2X         18.7540    59.6290    -8.5130 O.co2        1 NAP372  -1.0000
    48 O3X         18.7180    60.4470    -6.1850 O.co2        1 NAP372  -1.0000
    49 H5B1        25.8979    59.8416    -7.5007 H            1 NAP372   0.0000
    50 H5B2        25.4351    60.7714    -6.2405 H            1 NAP372   0.0000
    51 H4B         23.7080    60.8021    -7.8101 H            1 NAP372   0.0000
    52 H3B         23.0039    59.2269    -5.5102 H            1 NAP372   0.0000
    53 H5          22.2454    61.7955    -6.3580 H            1 NAP372   0.0000
    54 H2B         20.9363    58.8613    -6.4329 H            1 NAP372   0.0000
    55 H1B         21.7699    58.9917    -9.0059 H            1 NAP372   0.0000
    56 H8A         21.6920    56.6644   -10.1022 H            1 NAP372   0.0000
    57 H6A1        20.8099    52.1267    -6.1609 H            1 NAP372   0.0000
    58 H6A2        20.8888    52.6432    -7.8123 H            1 NAP372   0.0000
    59 H2A         21.6387    55.8625    -3.6862 H            1 NAP372   0.0000
    60 H5D1        28.4169    61.7224    -4.5816 H            1 NAP372   0.0000
    61 H5D2        28.4558    61.1826    -6.1223 H            1 NAP372   0.0000
    62 H4D         29.4223    63.3621    -5.9224 H            1 NAP372   0.0000
    63 H3D         31.1033    61.2414    -6.8436 H            1 NAP372   0.0000
    64 H16         30.8809    62.2461    -8.8620 H            1 NAP372   0.0000
    65 H2D         32.8899    62.6373    -7.0069 H            1 NAP372   0.0000
    66 H18         32.7938    64.7358    -7.4030 H            1 NAP372   0.0000
    67 H1D         32.4883    63.9942    -4.7869 H            1 NAP372   0.0000
    68 H2N         33.8636    61.7493    -6.5259 H            1 NAP372   0.0000
    69 H7N1        34.3741    57.9441    -7.5139 H            1 NAP372   0.0000
    70 H7N2        33.2432    58.5832    -6.3681 H            1 NAP372   0.0000
    71 H4N         35.3512    59.2152    -3.6262 H            1 NAP372   0.0000
    72 H5N         33.9196    60.2551    -2.0107 H            1 NAP372   0.0000
    73 H6N         32.4618    62.0370    -2.6832 H            1 NAP372   0.0000
@<TRIPOS>BOND
     1    1    2      ar
     2    1    3      ar
     3    1    4       1
     4    1   23       1
     5    4    5       1
     6    5    6       1
     7    6    7       1
     8    6    8       1
     9    7   12       1
    10    8    9       1
    11    8   10       1
    12   10   11       1
    13   10   12       1
    14   11   45       1
    15   12   13       1
    16   13   14       1
    17   13   22       1
    18   14   15       2
    19   15   16       1
    20   16   17      ar
    21   16   22      ar
    22   17   18       1
    23   17   19      ar
    24   19   20      ar
    25   20   21      ar
    26   21   22      ar
    27   23   24       1
    28   24   25      ar
    29   24   26      ar
    30   24   27       1
    31   27   28       1
    32   28   29       1
    33   29   30       1
    34   29   31       1
    35   30   35       1
    36   31   32       1
    37   31   33       1
    38   33   34       1
    39   33   35       1
    40   35   36       1
    41   36   37      ar
    42   36   44      ar
    43   37   38      ar
    44   38   39       1
    45   38   42      ar
    46   39   40       2
    47   39   41      am
    48   42   43      ar
    49   43   44      ar
    50   45   46      ar
    51   45   47      ar
    52   45   48      ar
    53   43   72       1
    54    5   49       1
    55    5   50       1
    56    6   51       1
    57    8   52       1
    58    9   53       1
    59   10   54       1
    60   12   55       1
    61   14   56       1
    62   18   57       1
    63   18   58       1
    64   20   59       1
    65   44   73       1
    66   28   60       1
    67   28   61       1
    68   29   62       1
    69   31   63       1
    70   32   64       1
    71   33   65       1
    72   34   66       1
    73   35   67       1
    74   37   68       1
    75   41   69       1
    76   41   70       1
    77   42   71       1
@<TRIPOS>SUBSTRUCTURE
     1 NAP372      1 GROUP             4 B     NAP     0 **** NAP B 372
