@<TRIPOS>MOLECULE
3axk_NDP_1_ligand
   73    77     1     0     0
SMALL
NO_CHARGES


@<TRIPOS>ATOM
     1 PA          31.0580    25.3080   -20.7640 P.3          1 NDP479   0.0000
     2 O1A         31.4210    23.8730   -20.6470 O.co2        1 NDP479   0.0000
     3 O2A         32.1060    26.3320   -20.9540 O.co2        1 NDP479  -1.0000
     4 O5B         30.1050    25.6090   -19.5270 O.3          1 NDP479   0.0000
     5 C5B         29.5750    26.9380   -19.3560 C.3          1 NDP479   0.0000
     6 C4B         28.5180    26.8440   -18.2910 C.3          1 NDP479   0.0000
     7 O4B         27.6180    25.7300   -18.5670 O.3          1 NDP479   0.0000
     8 C3B         28.9930    26.5980   -16.8750 C.3          1 NDP479   0.0000
     9 O3B         29.4450    27.8190   -16.3340 O.3          1 NDP479   0.0000
    10 C2B         27.6780    26.1370   -16.2310 C.3          1 NDP479   0.0000
    11 O2B         26.7780    27.2140   -16.0220 O.3          1 NDP479   0.0000
    12 C1B         27.1060    25.2330   -17.3270 C.3          1 NDP479   0.0000
    13 N9A         27.4000    23.8050   -17.1640 N.pl3        1 NDP479   0.0000
    14 C8A         28.1100    22.9920   -18.0350 C.2          1 NDP479   0.0000
    15 N7A         28.3180    21.7820   -17.5500 N.2          1 NDP479   0.0000
    16 C5A         27.4870    21.7280   -16.4650 C.ar         1 NDP479   0.0000
    17 C6A         27.2900    20.7350   -15.4670 C.ar         1 NDP479   0.0000
    18 N6A         27.9820    19.5890   -15.4760 N.pl3        1 NDP479   0.0000
    19 N1A         26.4520    21.0400   -14.4270 N.ar         1 NDP479   0.0000
    20 C2A         25.9290    22.2870   -14.3000 C.ar         1 NDP479   0.0000
    21 N3A         26.0570    23.3070   -15.1850 N.ar         1 NDP479   0.0000
    22 C4A         26.8770    22.9650   -16.2340 C.ar         1 NDP479   0.0000
    23 O3          29.9770    25.4030   -21.9620 O.3          1 NDP479   0.0000
    24 PN          29.4520    24.5100   -23.1490 P.3          1 NDP479   0.0000
    25 O1N         28.7260    23.3320   -22.5830 O.co2        1 NDP479   0.0000
    26 O2N         28.7310    25.4180   -24.0750 O.co2        1 NDP479  -1.0000
    27 O5D         30.7580    24.0560   -23.9450 O.3          1 NDP479   0.0000
    28 C5D         31.0280    22.6850   -24.2710 C.3          1 NDP479   0.0000
    29 C4D         30.6010    22.3760   -25.6780 C.3          1 NDP479   0.0000
    30 O4D         31.0910    21.0850   -26.1100 O.3          1 NDP479   0.0000
    31 C3D         29.1000    22.3700   -26.0010 C.3          1 NDP479   0.0000
    32 O3D         28.7920    22.9490   -27.2590 O.3          1 NDP479   0.0000
    33 C2D         28.7620    20.8890   -25.8740 C.3          1 NDP479   0.0000
    34 O2D         27.5600    20.6380   -26.5830 O.3          1 NDP479   0.0000
    35 C1D         30.0090    20.3180   -26.5890 C.3          1 NDP479   0.0000
    36 N1N         30.3060    18.8640   -26.3650 N.ar         1 NDP479   1.0000
    37 C2N         31.3890    18.3620   -27.0740 C.ar         1 NDP479   0.0000
    38 C3N         31.1970    17.2780   -27.9470 C.ar         1 NDP479   0.0000
    39 C7N         32.3680    16.5450   -28.5320 C.2          1 NDP479   0.0000
    40 O7N         32.9822    17.0480   -29.4778 O.2          1 NDP479   0.0000
    41 N7N         32.7887    15.4484   -27.8900 N.am         1 NDP479   0.0000
    42 C4N         29.9180    16.6330   -27.9590 C.ar         1 NDP479   0.0000
    43 C5N         28.9890    16.9320   -26.9360 C.ar         1 NDP479   0.0000
    44 C6N         29.2740    17.9670   -26.0400 C.ar         1 NDP479   0.0000
    45 P2B         26.6770    28.0950   -14.6720 P.3          1 NDP479   0.0000
    46 O1X         28.0480    28.6440   -14.3380 O.co2        1 NDP479   0.0000
    47 O2X         25.6600    29.1190   -15.0970 O.co2        1 NDP479  -1.0000
    48 O3X         26.1560    27.1640   -13.6000 O.co2        1 NDP479  -1.0000
    49 H5B1        29.1740    27.2626   -20.2126 H            1 NDP479   0.0000
    50 H5B2        30.2997    27.5643   -19.0688 H            1 NDP479   0.0000
    51 H4B         27.9845    27.6897   -18.3016 H            1 NDP479   0.0000
    52 H3B         29.6969    25.8888   -16.8353 H            1 NDP479   0.0000
    53 H5          28.9055    28.0441   -15.5227 H            1 NDP479   0.0000
    54 H2B         27.8428    25.6284   -15.3859 H            1 NDP479   0.0000
    55 H1B         26.1124    25.3459   -17.3345 H            1 NDP479   0.0000
    56 H8A         28.4301    23.2905   -18.9341 H            1 NDP479   0.0000
    57 H6A1        27.8261    18.9052   -14.7632 H            1 NDP479   0.0000
    58 H6A2        28.6548    19.4168   -16.1955 H            1 NDP479   0.0000
    59 H2A         25.3976    22.4712   -13.4732 H            1 NDP479   0.0000
    60 H5D1        30.5274    22.0932   -23.6392 H            1 NDP479   0.0000
    61 H5D2        32.0092    22.5140   -24.1813 H            1 NDP479   0.0000
    62 H4D         31.0245    23.0622   -26.2694 H            1 NDP479   0.0000
    63 H3D         28.6145    22.8739   -25.2866 H            1 NDP479   0.0000
    64 H16         29.5586    22.8109   -27.8861 H            1 NDP479   0.0000
    65 H2D         28.7061    20.5949   -24.9199 H            1 NDP479   0.0000
    66 H18         27.7325    19.9676   -27.3047 H            1 NDP479   0.0000
    67 H1D         29.9148    20.4772   -27.5717 H            1 NDP479   0.0000
    68 H2N         32.2964    18.7678   -26.9644 H            1 NDP479   0.0000
    69 H7N1        33.6927    15.0692   -28.0875 H            1 NDP479   0.0000
    70 H7N2        32.1990    15.0084   -27.2127 H            1 NDP479   0.0000
    71 H4N         29.6856    15.9807   -28.6805 H            1 NDP479   0.0000
    72 H5N         28.1397    16.4104   -26.8543 H            1 NDP479   0.0000
    73 H6N         28.7569    18.0664   -25.1899 H            1 NDP479   0.0000
@<TRIPOS>BOND
     1    1    2      ar
     2    1    3      ar
     3    1    4       1
     4    1   23       1
     5    4    5       1
     6    5    6       1
     7    6    7       1
     8    6    8       1
     9    7   12       1
    10    8    9       1
    11    8   10       1
    12   10   11       1
    13   10   12       1
    14   11   45       1
    15   12   13       1
    16   13   14       1
    17   13   22       1
    18   14   15       2
    19   15   16       1
    20   16   17      ar
    21   16   22      ar
    22   17   18       1
    23   17   19      ar
    24   19   20      ar
    25   20   21      ar
    26   21   22      ar
    27   23   24       1
    28   24   25      ar
    29   24   26      ar
    30   24   27       1
    31   27   28       1
    32   28   29       1
    33   29   30       1
    34   29   31       1
    35   30   35       1
    36   31   32       1
    37   31   33       1
    38   33   34       1
    39   33   35       1
    40   35   36       1
    41   36   37      ar
    42   36   44      ar
    43   37   38      ar
    44   38   39       1
    45   38   42      ar
    46   39   40       2
    47   39   41      am
    48   42   43      ar
    49   43   44      ar
    50   45   46      ar
    51   45   47      ar
    52   45   48      ar
    53   43   72       1
    54    5   49       1
    55    5   50       1
    56    6   51       1
    57    8   52       1
    58    9   53       1
    59   10   54       1
    60   12   55       1
    61   14   56       1
    62   18   57       1
    63   18   58       1
    64   20   59       1
    65   44   73       1
    66   28   60       1
    67   28   61       1
    68   29   62       1
    69   31   63       1
    70   32   64       1
    71   33   65       1
    72   34   66       1
    73   35   67       1
    74   37   68       1
    75   41   69       1
    76   41   70       1
    77   42   71       1
@<TRIPOS>SUBSTRUCTURE
     1 NDP479      1 GROUP             4 A     NDP     0 **** NDP A 479
