@<TRIPOS>MOLECULE
3e68_H4B_2_ligand
   30    31     1     0     0
SMALL
NO_CHARGES


@<TRIPOS>ATOM
     1 N1         113.8160   112.0090    32.4750 N.2          1 H4B902   0.0000
     2 C2         115.0380   112.4730    32.7450 C.2          1 H4B902   0.0000
     3 N2         115.7950   112.9090    31.7460 N.pl3        1 H4B902   0.0000
     4 N3         115.5120   112.5290    33.9930 N.pl3        1 H4B902   0.0000
     5 C4         114.7670   112.1250    35.0150 C.2          1 H4B902   0.0000
     6 O4         115.1560   112.1750    36.1790 O.2          1 H4B902   0.0000
     7 C4A        113.4820   111.6260    34.7890 C.2          1 H4B902   0.0000
     8 C8A        113.0160   111.5960    33.4560 C.2          1 H4B902   0.0000
     9 N5         112.7300   111.2020    35.7880 N.pl3        1 H4B902   0.0000
    10 N8         111.7820   111.1580    33.1780 N.2          1 H4B902   0.0000
    11 C6         111.3250   110.9540    35.5760 C.3          1 H4B902   0.0000
    12 C7         110.9060   110.7890    34.1870 C.2          1 H4B902   0.0000
    13 C9         110.7080   110.2040    36.7570 C.3          1 H4B902   0.0000
    14 O9         110.3420   111.1440    37.7730 O.3          1 H4B902   0.0000
    15 C10        109.5080   109.3160    36.4040 C.3          1 H4B902   0.0000
    16 C11        108.8400   108.7750    37.6730 C.3          1 H4B902   0.0000
    17 O10        109.9630   108.2120    35.6140 O.3          1 H4B902   0.0000
    18 H1         116.7130   113.2599    31.9306 H            1 H4B902   0.0000
    19 H2         115.4474   112.8866    30.8086 H            1 H4B902   0.0000
    20 H3         113.1340   111.0530    36.6905 H            1 H4B902   0.0000
    21 H4         110.9645   111.8700    35.7522 H            1 H4B902   0.0000
    22 H5         110.0041   110.4168    33.9678 H            1 H4B902   0.0000
    23 H6         111.4171   109.6113    37.1388 H            1 H4B902   0.0000
    24 H7         109.6767   111.7925    37.4031 H            1 H4B902   0.0000
    25 H8         108.8434   109.8484    35.8797 H            1 H4B902   0.0000
    26 H9         108.0618   108.1999    37.4208 H            1 H4B902   0.0000
    27 H10        109.5007   108.2329    38.1923 H            1 H4B902   0.0000
    28 H11        108.5217   109.5393    38.2339 H            1 H4B902   0.0000
    29 H12        109.5050   108.2270    34.7252 H            1 H4B902   0.0000
    30 H13        116.4345   112.8777    34.1584 H            1 H4B902   0.0000
@<TRIPOS>BOND
     1    1    2       2
     2    1    8       1
     3    2    3       1
     4    2    4       1
     5    4    5       1
     6    5    6       2
     7    5    7       1
     8    7    8       2
     9    7    9       1
    10    8   10       1
    11    9   11       1
    12   10   12       2
    13   11   12       1
    14   11   13       1
    15   13   14       1
    16   13   15       1
    17   15   16       1
    18   15   17       1
    19   17   29       1
    20    3   18       1
    21    3   19       1
    22    9   20       1
    23   11   21       1
    24   12   22       1
    25   13   23       1
    26   14   24       1
    27   15   25       1
    28   16   26       1
    29   16   27       1
    30   16   28       1
    31    4   30       1
@<TRIPOS>SUBSTRUCTURE
     1 H4B902      1 GROUP             4 A     H4B     0 **** H4B A 902
