@<TRIPOS>MOLECULE
2ewb_ZED_1_ligand
   38    39     1     0     0
SMALL
NO_CHARGES


@<TRIPOS>ATOM
     1 CZ1         70.8920    50.9340    21.6910 C.ar         1 ZED2000   0.0000
     2 CZ2         69.5490    50.6460    21.9880 C.ar         1 ZED2000   0.0000
     3 CZ3         69.2400    49.4540    22.6750 C.ar         1 ZED2000   0.0000
     4 CZ4         70.2630    48.5460    23.0640 C.ar         1 ZED2000   0.0000
     5 CZ5         71.6150    48.8420    22.7620 C.ar         1 ZED2000   0.0000
     6 CZ6         71.9330    50.0410    22.0750 C.ar         1 ZED2000   0.0000
     7 CZ7         66.2400    49.9210    19.6000 C.3          1 ZED2000   0.0000
     8 CZ8         65.8970    49.4130    21.0150 C.2          1 ZED2000   0.0000
     9 CZ9         67.7420    49.9840    19.3070 C.3          1 ZED2000   0.0000
    10 CZA         68.1060    51.4100    19.7000 C.3          1 ZED2000   0.0000
    11 CZB         66.9760    52.1600    19.0450 C.3          1 ZED2000   0.0000
    12 CZC         62.6680    53.2860    19.3200 C.3          1 ZED2000   0.0000
    13 CZD         64.0380    52.9360    18.6940 C.3          1 ZED2000   0.0000
    14 CZE         64.4920    51.5100    19.0410 C.2          1 ZED2000   0.0000
    15 CZF         64.0020    53.2110    17.1850 C.3          1 ZED2000   0.0000
    16 OZ1         66.1820    48.2540    21.3310 O.co2        1 ZED2000   0.0000
    17 OZ2         65.3420    50.1800    21.8110 O.co2        1 ZED2000  -1.0000
    18 OZ3         63.6610    50.5940    19.0620 O.2          1 ZED2000   0.0000
    19 NZ1         65.8040    51.3010    19.3300 N.am         1 ZED2000   0.0000
    20 SZ1         68.2350    51.7890    21.4790 S.3          1 ZED2000   0.0000
    21 SZ2         63.0650    52.0510    16.2040 S.3          1 ZED2000  -1.0000
    22 HZ1         71.1198    51.7770    21.2037 H            1 ZED2000   0.0000
    23 HZ3         68.2867    49.2439    22.8920 H            1 ZED2000   0.0000
    24 HZ4         70.0292    47.7029    23.5482 H            1 ZED2000   0.0000
    25 HZ5         72.3408    48.2092    23.0317 H            1 ZED2000   0.0000
    26 HZ6         72.8852    50.2589    21.8608 H            1 ZED2000   0.0000
    27 HZ7         65.8102    49.3146    18.9310 H            1 ZED2000   0.0000
    28 HZ91        67.9267    49.8196    18.3381 H            1 ZED2000   0.0000
    29 HZ92        68.2445    49.3191    19.8596 H            1 ZED2000   0.0000
    30 HZA         68.9642    51.6607    19.2520 H            1 ZED2000   0.0000
    31 HZB1        67.1260    52.2497    18.0604 H            1 ZED2000   0.0000
    32 HZB2        66.8641    53.0678    19.4492 H            1 ZED2000   0.0000
    33 HZC1        62.4150    54.2200    19.0676 H            1 ZED2000   0.0000
    34 HZC2        61.9746    52.6499    18.9816 H            1 ZED2000   0.0000
    35 HZC3        62.7284    53.2145    20.3156 H            1 ZED2000   0.0000
    36 HZD         64.7097    53.5620    19.0901 H            1 ZED2000   0.0000
    37 HZF1        64.9441    53.2050    16.8498 H            1 ZED2000   0.0000
    38 HZF2        63.6053    54.1187    17.0483 H            1 ZED2000   0.0000
@<TRIPOS>BOND
     1    1    2      ar
     2    1    6      ar
     3    2    3      ar
     4    2   20       1
     5    3    4      ar
     6    4    5      ar
     7    5    6      ar
     8    7    8       1
     9    7    9       1
    10    7   19       1
    11    8   16      ar
    12    8   17      ar
    13    9   10       1
    14   10   11       1
    15   10   20       1
    16   11   19       1
    17   12   13       1
    18   13   14       1
    19   13   15       1
    20   14   18       2
    21   14   19      am
    22   15   21       1
    23    1   22       1
    24    3   23       1
    25    4   24       1
    26    5   25       1
    27    6   26       1
    28    7   27       1
    29    9   28       1
    30    9   29       1
    31   10   30       1
    32   11   31       1
    33   11   32       1
    34   12   33       1
    35   12   34       1
    36   12   35       1
    37   13   36       1
    38   15   37       1
    39   15   38       1
@<TRIPOS>SUBSTRUCTURE
     1 ZED2000     1 GROUP             4 A     ZED     0 **** ZED A2000
