@<TRIPOS>MOLECULE
2iut_AGS_1_ligand
   43    45     1     0     0
SMALL
NO_CHARGES


@<TRIPOS>ATOM
     1 PG          -2.7000    11.6980    -0.2820 P.3          1 AGS1723   0.0000
     2 O2G         -4.1160    12.0120    -0.0370 O.co2        1 AGS1723  -1.0000
     3 O3G         -2.4440    10.5410    -1.2310 O.co2        1 AGS1723  -1.0000
     4 S1G         -1.7160    11.3090     1.1660 S.2          1 AGS1723   0.0000
     5 PB          -0.8260    13.7250    -0.9690 P.3          1 AGS1723   0.0000
     6 O1B         -0.8190    14.8680    -1.9100 O.co2        1 AGS1723   0.0000
     7 O2B         -0.4220    14.0020     0.4300 O.co2        1 AGS1723  -1.0000
     8 O3B         -2.2770    13.1150    -0.9770 O.3          1 AGS1723   0.0000
     9 PA           1.5110    12.0550    -0.8900 P.3          1 AGS1723   0.0000
    10 O1A          2.7260    12.8890    -0.9210 O.co2        1 AGS1723   0.0000
    11 O2A          0.9970    11.4720     0.3630 O.co2        1 AGS1723  -1.0000
    12 O3A          0.2110    12.8100    -1.5930 O.3          1 AGS1723   0.0000
    13 O5'          1.6660    10.9980    -2.0480 O.3          1 AGS1723   0.0000
    14 C5'          2.5200     9.9490    -1.8080 C.3          1 AGS1723   0.0000
    15 C4'          2.4540     8.9620    -2.9580 C.3          1 AGS1723   0.0000
    16 O4'          2.3530     9.6130    -4.2170 O.3          1 AGS1723   0.0000
    17 C3'          3.6910     8.0910    -2.9600 C.3          1 AGS1723   0.0000
    18 O3'          3.4000     6.8830    -2.3030 O.3          1 AGS1723   0.0000
    19 C2'          3.9500     7.8980    -4.4500 C.3          1 AGS1723   0.0000
    20 O2'          3.3400     6.7150    -4.9910 O.3          1 AGS1723   0.0000
    21 C1'          3.4300     9.2680    -5.0450 C.3          1 AGS1723   0.0000
    22 N9           4.4730    10.3630    -4.9390 N.pl3        1 AGS1723   0.0000
    23 C8           4.5090    11.5230    -4.1760 C.2          1 AGS1723   0.0000
    24 N7           5.5620    12.3030    -4.2220 N.2          1 AGS1723   0.0000
    25 C5           6.3200    11.6290    -5.1360 C.ar         1 AGS1723   0.0000
    26 C6           7.6180    11.8830    -5.6910 C.ar         1 AGS1723   0.0000
    27 N6           8.3890    13.0610    -5.2740 N.pl3        1 AGS1723   0.0000
    28 N1           8.1380    11.0080    -6.6240 N.ar         1 AGS1723   0.0000
    29 C2           7.4070     9.8910    -7.0270 C.ar         1 AGS1723   0.0000
    30 N3           6.1620     9.5240    -6.5720 N.ar         1 AGS1723   0.0000
    31 C4           5.6680    10.4320    -5.6180 C.ar         1 AGS1723   0.0000
    32 H5'1         2.2529     9.4902    -0.9606 H            1 AGS1723   0.0000
    33 H5'2         3.4543    10.2945    -1.7198 H            1 AGS1723   0.0000
    34 H4'          1.6515     8.3785    -2.8337 H            1 AGS1723   0.0000
    35 H3'          4.4582     8.5596    -2.5221 H            1 AGS1723   0.0000
    36 H5           2.4323     6.6621    -2.4246 H            1 AGS1723   0.0000
    37 H2'          4.9376     7.8420    -4.5965 H            1 AGS1723   0.0000
    38 H7           3.9773     5.9479    -4.9173 H            1 AGS1723   0.0000
    39 H1'          3.1289     9.1536    -5.9917 H            1 AGS1723   0.0000
    40 H9           3.7331    11.7629    -3.5925 H            1 AGS1723   0.0000
    41 H10          9.2933    13.2310    -5.6657 H            1 AGS1723   0.0000
    42 H11          8.0098    13.6932    -4.5983 H            1 AGS1723   0.0000
    43 H12          7.8291     9.2991    -7.7137 H            1 AGS1723   0.0000
@<TRIPOS>BOND
     1    1    2      ar
     2    1    3      ar
     3    1    4       2
     4    1    8       1
     5    5    6      ar
     6    5    7      ar
     7    5    8       1
     8    5   12       1
     9    9   10      ar
    10    9   11      ar
    11    9   12       1
    12    9   13       1
    13   13   14       1
    14   14   15       1
    15   15   16       1
    16   15   17       1
    17   16   21       1
    18   17   18       1
    19   17   19       1
    20   19   20       1
    21   19   21       1
    22   21   22       1
    23   22   23       1
    24   22   31       1
    25   23   24       2
    26   24   25       1
    27   25   26      ar
    28   25   31      ar
    29   26   27       1
    30   26   28      ar
    31   28   29      ar
    32   29   30      ar
    33   30   31      ar
    34   29   43       1
    35   27   42       1
    36   27   41       1
    37   23   40       1
    38   14   32       1
    39   14   33       1
    40   15   34       1
    41   17   35       1
    42   18   36       1
    43   19   37       1
    44   20   38       1
    45   21   39       1
@<TRIPOS>SUBSTRUCTURE
     1 AGS1723     1 GROUP             4 A     AGS     0 **** AGS A1723
