@<TRIPOS>MOLECULE
1fnc_FDA_1_ligand
   84    89     1     0     0
SMALL
NO_CHARGES


@<TRIPOS>ATOM
     1 PA          24.4450    -0.8110    -0.5260 P.3          1 FDA315   0.0000
     2 O1A         24.8150     0.6090    -0.5100 O.co2        1 FDA315   0.0000
     3 O2A         25.1660    -1.9180    -1.2770 O.co2        1 FDA315  -1.0000
     4 O5B         22.8670    -1.0440    -0.8700 O.3          1 FDA315   0.0000
     5 C5B         22.0320     0.0190    -0.3670 C.3          1 FDA315   0.0000
     6 C4B         20.8550     0.0620    -1.2790 C.3          1 FDA315   0.0000
     7 O4B         20.0920    -1.1070    -0.9140 O.3          1 FDA315   0.0000
     8 C3B         19.8270     1.1730    -1.0970 C.3          1 FDA315   0.0000
     9 O3B         20.2370     2.4380    -1.5360 O.3          1 FDA315   0.0000
    10 C2B         18.6170     0.5610    -1.8420 C.3          1 FDA315   0.0000
    11 O2B         18.7800     0.7120    -3.2620 O.3          1 FDA315   0.0000
    12 C1B         18.7960    -0.9030    -1.5860 C.3          1 FDA315   0.0000
    13 N9A         17.7410    -1.4870    -0.7450 N.pl3        1 FDA315   0.0000
    14 C8A         17.6710    -1.6120     0.6630 C.2          1 FDA315   0.0000
    15 N7A         16.6010    -2.3220     1.0280 N.2          1 FDA315   0.0000
    16 C5A         15.9860    -2.6390    -0.1640 C.ar         1 FDA315   0.0000
    17 C6A         14.7740    -3.3570    -0.4630 C.ar         1 FDA315   0.0000
    18 N6A         14.0190    -3.8770     0.4730 N.pl3        1 FDA315   0.0000
    19 N1A         14.4640    -3.4590    -1.7960 N.ar         1 FDA315   0.0000
    20 C2A         15.2400    -2.9210    -2.7880 C.ar         1 FDA315   0.0000
    21 N3A         16.3470    -2.2420    -2.5930 N.ar         1 FDA315   0.0000
    22 C4A         16.6650    -2.1430    -1.2860 C.ar         1 FDA315   0.0000
    23 N1          23.9630     1.2810     9.3060 N.2          1 FDA315   0.0000
    24 C2          24.2350     0.3450    10.2270 C.2          1 FDA315   0.0000
    25 O2          24.0410    -0.8430     9.9940 O.2          1 FDA315   0.0000
    26 N3          24.6560     0.7590    11.5080 N.pl3        1 FDA315   0.0000
    27 C4          24.8790     2.0370    11.8500 C.2          1 FDA315   0.0000
    28 O4          25.3610     2.3190    12.8820 O.2          1 FDA315   0.0000
    29 C4X         24.6710     3.0280    10.8100 C.2          1 FDA315   0.0000
    30 N5          24.8150     4.2960    11.0980 N.2          1 FDA315   0.0000
    31 C5X         24.4930     5.1650    10.0920 C.ar         1 FDA315   0.0000
    32 C6          24.7160     6.5070    10.3020 C.ar         1 FDA315   0.0000
    33 C7          24.3280     7.4050     9.3330 C.ar         1 FDA315   0.0000
    34 C7M         24.4950     8.8610     9.5290 C.3          1 FDA315   0.0000
    35 C8          23.9490     6.9640     8.0470 C.ar         1 FDA315   0.0000
    36 C8M         23.6410     7.9700     6.9860 C.3          1 FDA315   0.0000
    37 C9          23.8280     5.6320     7.7680 C.ar         1 FDA315   0.0000
    38 C9A         24.1180     4.7320     8.7850 C.ar         1 FDA315   0.0000
    39 N10         23.9080     3.4060     8.5970 N.pl3        1 FDA315   0.0000
    40 C10         24.1870     2.5180     9.5790 C.2          1 FDA315   0.0000
    41 C1'         23.5370     2.8660     7.2750 C.3          1 FDA315   0.0000
    42 C2'         24.8510     2.5060     6.4460 C.3          1 FDA315   0.0000
    43 O2'         25.5480     3.7260     6.1540 O.3          1 FDA315   0.0000
    44 C3'         24.5870     1.7960     5.1010 C.3          1 FDA315   0.0000
    45 O3'         23.6790     2.5590     4.2700 O.3          1 FDA315   0.0000
    46 C4'         24.1000     0.3580     5.2670 C.3          1 FDA315   0.0000
    47 O4'         25.0400    -0.3960     6.0730 O.3          1 FDA315   0.0000
    48 C5'         23.8830    -0.3380     3.8930 C.3          1 FDA315   0.0000
    49 O5'         25.0890    -0.1480     3.0660 O.3          1 FDA315   0.0000
    50 P           25.6430    -1.3630     2.1390 P.3          1 FDA315   0.0000
    51 O1P         26.8500    -0.7390     1.4500 O.co2        1 FDA315   0.0000
    52 O2P         25.6870    -2.7140     2.8510 O.co2        1 FDA315  -1.0000
    53 O3P         24.3950    -1.3020     1.0550 O.3          1 FDA315   0.0000
    54 H5B1        22.5232     0.8898    -0.3883 H            1 FDA315   0.0000
    55 H5B2        21.7419    -0.1772     0.5697 H            1 FDA315   0.0000
    56 H4B         21.1477     0.0068    -2.2336 H            1 FDA315   0.0000
    57 H3B         19.5996     1.2354    -0.1252 H            1 FDA315   0.0000
    58 H5          19.5038     3.0994    -1.3781 H            1 FDA315   0.0000
    59 H2B         17.7398     0.9094    -1.5117 H            1 FDA315   0.0000
    60 H7          17.9927     0.3131    -3.7322 H            1 FDA315   0.0000
    61 H1B         18.8100    -1.3830    -2.4631 H            1 FDA315   0.0000
    62 H8A         18.3350    -1.2204     1.3000 H            1 FDA315   0.0000
    63 H6A1        13.1841    -4.3689     0.2261 H            1 FDA315   0.0000
    64 H6A2        14.2776    -3.7820     1.4343 H            1 FDA315   0.0000
    65 H2A         14.9409    -3.0555    -3.7327 H            1 FDA315   0.0000
    66 H13         24.7971     0.0559    12.2049 H            1 FDA315   0.0000
    67 H14         25.1524     6.8243    11.1440 H            1 FDA315   0.0000
    68 H7M1        24.1579     9.3467     8.7225 H            1 FDA315   0.0000
    69 H7M2        23.9765     9.1507    10.3335 H            1 FDA315   0.0000
    70 H7M3        25.4635     9.0703     9.6636 H            1 FDA315   0.0000
    71 H8M1        23.3913     7.4973     6.1409 H            1 FDA315   0.0000
    72 H8M2        22.8793     8.5457     7.2835 H            1 FDA315   0.0000
    73 H8M3        24.4462     8.5403     6.8236 H            1 FDA315   0.0000
    74 H21         23.5408     5.3164     6.8636 H            1 FDA315   0.0000
    75 H1'1        23.0065     3.5502     6.7746 H            1 FDA315   0.0000
    76 H1'2        22.9857     2.0407     7.3970 H            1 FDA315   0.0000
    77 H2'         25.4389     1.9246     7.0085 H            1 FDA315   0.0000
    78 H25         26.1943     3.9251     6.8906 H            1 FDA315   0.0000
    79 H3'         25.4608     1.7542     4.6165 H            1 FDA315   0.0000
    80 H27         23.8867     2.3896     3.3066 H            1 FDA315   0.0000
    81 H4'         23.2235     0.3791     5.7479 H            1 FDA315   0.0000
    82 H29         24.5510    -1.1083     6.5765 H            1 FDA315   0.0000
    83 H5'1        23.0930     0.0669     3.4326 H            1 FDA315   0.0000
    84 H5'2        23.7225    -1.3150     4.0332 H            1 FDA315   0.0000
@<TRIPOS>BOND
     1    1    2      ar
     2    1    3      ar
     3    1    4       1
     4    1   53       1
     5    4    5       1
     6    5    6       1
     7    6    7       1
     8    6    8       1
     9    7   12       1
    10    8    9       1
    11    8   10       1
    12   10   11       1
    13   10   12       1
    14   12   13       1
    15   13   14       1
    16   13   22       1
    17   14   15       2
    18   15   16       1
    19   16   17      ar
    20   16   22      ar
    21   17   18       1
    22   17   19      ar
    23   19   20      ar
    24   20   21      ar
    25   21   22      ar
    26   23   24       1
    27   23   40       2
    28   24   25       2
    29   24   26       1
    30   26   27       1
    31   27   28       2
    32   27   29       1
    33   29   30       2
    34   29   40       1
    35   30   31       1
    36   31   32      ar
    37   31   38      ar
    38   32   33      ar
    39   33   34       1
    40   33   35      ar
    41   35   36       1
    42   35   37      ar
    43   37   38      ar
    44   38   39       1
    45   39   40       1
    46   39   41       1
    47   41   42       1
    48   42   43       1
    49   42   44       1
    50   44   45       1
    51   44   46       1
    52   46   47       1
    53   46   48       1
    54   48   49       1
    55   49   50       1
    56   50   51      ar
    57   50   52      ar
    58   50   53       1
    59   48   84       1
    60    5   54       1
    61    5   55       1
    62    6   56       1
    63    8   57       1
    64    9   58       1
    65   10   59       1
    66   11   60       1
    67   12   61       1
    68   14   62       1
    69   18   63       1
    70   18   64       1
    71   20   65       1
    72   26   66       1
    73   32   67       1
    74   34   68       1
    75   34   69       1
    76   34   70       1
    77   36   71       1
    78   36   72       1
    79   36   73       1
    80   37   74       1
    81   41   75       1
    82   41   76       1
    83   42   77       1
    84   43   78       1
    85   44   79       1
    86   45   80       1
    87   46   81       1
    88   47   82       1
    89   48   83       1
@<TRIPOS>SUBSTRUCTURE
     1 FDA315      1 GROUP             4 A     FDA     0 **** FDA A 315
