@<TRIPOS>MOLECULE
5by6_UMP_4_ligand
   31    32     1     0     0
SMALL
NO_CHARGES


@<TRIPOS>ATOM
     1 N1          19.5520    -1.7000   -56.0220 N.pl3        1 UMP401   0.0000
     2 C2          20.2960    -1.7920   -57.2240 C.2          1 UMP401   0.0000
     3 N3          21.6470    -1.7070   -57.2230 N.pl3        1 UMP401   0.0000
     4 C4          22.3380    -1.5970   -56.0910 C.2          1 UMP401   0.0000
     5 C5          21.6310    -1.4690   -54.8740 C.2          1 UMP401   0.0000
     6 C6          20.2460    -1.5780   -54.8680 C.2          1 UMP401   0.0000
     7 O2          19.6990    -1.9240   -58.3010 O.2          1 UMP401   0.0000
     8 O4          23.5870    -1.5540   -56.1360 O.2          1 UMP401   0.0000
     9 C1'         18.0940    -1.7280   -55.9980 C.3          1 UMP401   0.0000
    10 C2'         17.4530    -3.1270   -56.2710 C.3          1 UMP401   0.0000
    11 C3'         16.1770    -2.9210   -55.4650 C.3          1 UMP401   0.0000
    12 C4'         16.6070    -2.2180   -54.1950 C.3          1 UMP401   0.0000
    13 O3'         15.3140    -2.0650   -56.2200 O.3          1 UMP401   0.0000
    14 O4'         17.6840    -1.3640   -54.6750 O.3          1 UMP401   0.0000
    15 C5'         17.0950    -3.1500   -53.0820 C.3          1 UMP401   0.0000
    16 O5'         15.9590    -3.7340   -52.4580 O.3          1 UMP401   0.0000
    17 P           15.8690    -5.3220   -52.0390 P.3          1 UMP401   0.0000
    18 OP1         16.1920    -6.1320   -53.3220 O.co2        1 UMP401   0.0000
    19 OP2         16.8440    -5.6430   -51.0230 O.co2        1 UMP401  -1.0000
    20 OP3         14.3860    -5.3750   -51.6280 O.co2        1 UMP401  -1.0000
    21 H1          22.1377    -1.7274   -58.0941 H            1 UMP401   0.0000
    22 H2          22.1253    -1.3008   -54.0212 H            1 UMP401   0.0000
    23 H3          19.7549    -1.5660   -53.9970 H            1 UMP401   0.0000
    24 H1'         17.7362    -1.0629   -56.6535 H            1 UMP401   0.0000
    25 H2'1        18.0107    -3.8772   -55.9159 H            1 UMP401   0.0000
    26 H2'2        17.2695    -3.2788   -57.2422 H            1 UMP401   0.0000
    27 H3'         15.7329    -3.7937   -55.2622 H            1 UMP401   0.0000
    28 H4'         15.8564    -1.6521   -53.8539 H            1 UMP401   0.0000
    29 H9          15.7690    -1.1887   -56.3782 H            1 UMP401   0.0000
    30 H5'1        17.6191    -2.6277   -52.4093 H            1 UMP401   0.0000
    31 H5'2        17.6731    -3.8673   -53.4710 H            1 UMP401   0.0000
@<TRIPOS>BOND
     1    1    2       1
     2    1    6       1
     3    1    9       1
     4    2    3       1
     5    2    7       2
     6    3    4       1
     7    4    5       1
     8    4    8       2
     9    5    6       2
    10    9   10       1
    11    9   14       1
    12   10   11       1
    13   11   12       1
    14   11   13       1
    15   12   14       1
    16   12   15       1
    17   15   16       1
    18   16   17       1
    19   17   18      ar
    20   17   19      ar
    21   17   20      ar
    22    3   21       1
    23    5   22       1
    24    6   23       1
    25    9   24       1
    26   10   25       1
    27   10   26       1
    28   11   27       1
    29   12   28       1
    30   13   29       1
    31   15   30       1
    32   15   31       1
@<TRIPOS>SUBSTRUCTURE
     1 UMP401      1 GROUP             4 D     UMP     0 **** UMP D 401
