@<TRIPOS>MOLECULE
5d0r_B1T_1_ligand
   25    26     1     0     0
SMALL
NO_CHARGES


@<TRIPOS>ATOM
     1 OAA         17.5290    23.0010    -0.3880 O.3          1 B1T501   0.0000
     2 CAP         16.8620    23.1490     0.7770 C.ar         1 B1T501   0.0000
     3 CAN         16.8620    22.0370     1.7890 C.ar         1 B1T501   0.0000
     4 CLAE        17.7730    20.4710     1.5180 Cl           1 B1T501   0.0000
     5 CAG         16.1790    22.2810     2.9870 C.ar         1 B1T501   0.0000
     6 CAL         15.5040    23.4910     3.2310 C.ar         1 B1T501   0.0000
     7 CLAC        14.6220    23.8380     4.7610 Cl           1 B1T501   0.0000
     8 CAI         15.4770    24.5210     2.3090 C.ar         1 B1T501   0.0000
     9 CAR         16.1100    24.3990     1.0880 C.ar         1 B1T501   0.0000
    10 SAK         15.9810    25.7410     0.0730 S.3          1 B1T501   0.0000
    11 CAS         17.3110    26.6790     0.5110 C.ar         1 B1T501   0.0000
    12 CAJ         18.2910    26.2880     1.4280 C.ar         1 B1T501   0.0000
    13 CAM         19.3480    27.1480     1.7210 C.ar         1 B1T501   0.0000
    14 CLAD        20.5940    26.6790     2.9100 Cl           1 B1T501   0.0000
    15 CAH         19.4980    28.3810     1.1170 C.ar         1 B1T501   0.0000
    16 CAO         18.5680    28.8260     0.1770 C.ar         1 B1T501   0.0000
    17 CLAF        18.7950    30.4360    -0.5840 Cl           1 B1T501   0.0000
    18 CAQ         17.4110    27.9730    -0.1850 C.ar         1 B1T501   0.0000
    19 OAB         16.4650    28.3450    -1.1050 O.3          1 B1T501   0.0000
    20 HAA         18.0226    22.1521    -0.5772 H            1 B1T501   0.0000
    21 HAG         16.1708    21.5719     3.6921 H            1 B1T501   0.0000
    22 HAI         14.9917    25.3670     2.5298 H            1 B1T501   0.0000
    23 HAJ         18.2339    25.3940     1.8724 H            1 B1T501   0.0000
    24 HAH         20.2787    28.9588     1.3551 H            1 B1T501   0.0000
    25 HAB         16.5414    29.2257    -1.5725 H            1 B1T501   0.0000
@<TRIPOS>BOND
     1    1    2       1
     2    2    3      ar
     3    2    9      ar
     4    3    4       1
     5    3    5      ar
     6    5    6      ar
     7    6    7       1
     8    6    8      ar
     9    8    9      ar
    10    9   10       1
    11   10   11       1
    12   11   12      ar
    13   11   18      ar
    14   12   13      ar
    15   13   14       1
    16   13   15      ar
    17   15   16      ar
    18   16   17       1
    19   16   18      ar
    20   18   19       1
    21    1   20       1
    22    5   21       1
    23    8   22       1
    24   12   23       1
    25   15   24       1
    26   19   25       1
@<TRIPOS>SUBSTRUCTURE
     1 B1T501      1 GROUP             4 A     B1T     0 **** B1T A 501
