@<TRIPOS>MOLECULE
3ltw_HLZ_1_ligand
   20    21     1     0     0
SMALL
NO_CHARGES


@<TRIPOS>ATOM
     1 C1         -18.6110    -8.1310   -11.0600 C.ar         1 HLZ300   0.0000
     2 N2         -17.7260    -9.0930   -10.7110 N.ar         1 HLZ300   0.0000
     3 N3         -17.0140    -9.8260   -11.6820 N.ar         1 HLZ300   0.0000
     4 C4         -17.1620    -9.6250   -13.0050 C.ar         1 HLZ300   0.0000
     5 C5         -18.0470    -8.6610   -13.4810 C.ar         1 HLZ300   0.0000
     6 C6         -18.8280    -7.8560   -12.5060 C.ar         1 HLZ300   0.0000
     7 C7         -19.7160    -6.8860   -12.9690 C.ar         1 HLZ300   0.0000
     8 C8         -19.8560    -6.6930   -14.3440 C.ar         1 HLZ300   0.0000
     9 C9         -19.1230    -7.4520   -15.2640 C.ar         1 HLZ300   0.0000
    10 C10        -18.2210    -8.4320   -14.8430 C.ar         1 HLZ300   0.0000
    11 N11        -19.2770    -7.4400   -10.1140 N.pl3        1 HLZ300   0.0000
    12 N12        -18.9420    -6.1040    -9.8550 N.3          1 HLZ300   0.0000
    13 H1         -16.6315   -10.1730   -13.6518 H            1 HLZ300   0.0000
    14 H2         -20.2459    -6.3355   -12.3239 H            1 HLZ300   0.0000
    15 H3         -20.4928    -5.9985   -14.6789 H            1 HLZ300   0.0000
    16 H4         -19.2477    -7.2892   -16.2428 H            1 HLZ300   0.0000
    17 H5         -17.7049    -8.9643   -15.5140 H            1 HLZ300   0.0000
    18 H6         -20.0105    -7.8807    -9.5966 H            1 HLZ300   0.0000
    19 H7         -18.2368    -6.0684    -9.1469 H            1 HLZ300   0.0000
    20 H8         -18.5962    -5.6789   -10.6915 H            1 HLZ300   0.0000
@<TRIPOS>BOND
     1    1    2      ar
     2    1    6      ar
     3    1   11       1
     4    2    3      ar
     5    3    4      ar
     6    4    5      ar
     7    5    6      ar
     8    5   10      ar
     9    6    7      ar
    10    7    8      ar
    11    8    9      ar
    12    9   10      ar
    13   11   12       1
    14    4   13       1
    15    7   14       1
    16    8   15       1
    17    9   16       1
    18   10   17       1
    19   11   18       1
    20   12   19       1
    21   12   20       1
@<TRIPOS>SUBSTRUCTURE
     1 HLZ300      1 GROUP             4 A     HLZ     0 **** HLZ A 300
