@<TRIPOS>MOLECULE
4z5w_ILE_THR_GLN_TYS_TYS_1_ligand
  101   102     4     0     0
SMALL
NO_CHARGES


@<TRIPOS>ATOM
     1 N          -42.2700     1.7880   -32.1470 N.4          1 TYS30    1.0000
     2 CA         -41.7610     1.6130   -33.5080 C.3          1 TYS30    0.0000
     3 CB         -41.1580     0.2240   -33.6790 C.3          1 TYS30    0.0000
     4 CG         -42.1330    -0.9110   -33.4620 C.ar         1 TYS30    0.0000
     5 CD1        -42.8990    -1.4020   -34.5150 C.ar         1 TYS30    0.0000
     6 CD2        -42.2820    -1.5080   -32.2010 C.ar         1 TYS30    0.0000
     7 CE1        -43.7940    -2.4460   -34.3250 C.ar         1 TYS30    0.0000
     8 CE2        -43.1560    -2.5680   -32.0090 C.ar         1 TYS30    0.0000
     9 CZ         -43.9190    -3.0310   -33.0710 C.ar         1 TYS30    0.0000
    10 OH         -44.7770    -4.0150   -32.9360 O.3          1 TYS30    0.0000
    11 S          -44.6400    -5.2110   -31.8430 S.o2         1 TYS30    0.0000
    12 O1         -43.1980    -5.7500   -31.7790 O.co2        1 TYS30    0.0000
    13 O2         -45.5940    -6.3650   -32.1990 O.co2        1 TYS30    0.0000
    14 O3         -45.0360    -4.6170   -30.5450 O.co2        1 TYS30   -1.0000
    15 C          -42.8880     1.8150   -34.5150 C.2          1 TYS30    0.0000
    16 O          -44.0780     1.7380   -34.1740 O.2          1 TYS30    0.0000
    17 H1         -42.6615     2.7033   -32.0526 H            1 TYS30    0.0000
    18 H2         -42.9756     1.1033   -31.9644 H            1 TYS30    0.0000
    19 HA         -41.0507     2.2962   -33.6772 H            1 TYS30    0.0000
    20 HB1        -40.4107     0.1244   -33.0220 H            1 TYS30    0.0000
    21 HB2        -40.7963     0.1523   -34.6086 H            1 TYS30    0.0000
    22 HD1        -42.8031    -0.9959   -35.4238 H            1 TYS30    0.0000
    23 HD2        -41.7493    -1.1637   -31.4279 H            1 TYS30    0.0000
    24 HE1        -44.3478    -2.7764   -35.0893 H            1 TYS30    0.0000
    25 HE2        -43.2357    -2.9965   -31.1090 H            1 TYS30    0.0000
    26 N          -44.9790     0.8280   -37.9650 N.am         1 TYS30    0.0000
    27 CA         -45.3450    -0.3160   -38.7690 C.3          1 TYS30    0.0000
    28 CB         -45.8670    -1.4910   -37.9450 C.3          1 TYS30    0.0000
    29 CG         -47.1500    -1.1970   -37.2040 C.ar         1 TYS30    0.0000
    30 CD1        -48.3790    -1.6730   -37.6630 C.ar         1 TYS30    0.0000
    31 CD2        -47.1360    -0.4450   -36.0380 C.ar         1 TYS30    0.0000
    32 CE1        -49.5560    -1.4120   -36.9670 C.ar         1 TYS30    0.0000
    33 CE2        -48.3000    -0.1880   -35.3400 C.ar         1 TYS30    0.0000
    34 CZ         -49.5080    -0.6680   -35.8100 C.ar         1 TYS30    0.0000
    35 OH         -50.6020    -0.3610   -35.1670 O.3          1 TYS30    0.0000
    36 S          -51.2330    -1.2530   -33.9840 S.o2         1 TYS30    0.0000
    37 O1         -51.4510    -2.6820   -34.4890 O.co2        1 TYS30    0.0000
    38 O2         -52.5640    -0.6250   -33.5650 O.co2        1 TYS30    0.0000
    39 O3         -50.2850    -1.2340   -32.8650 O.co2        1 TYS30   -1.0000
    40 C          -46.4020     0.1230   -39.7570 C.2          1 TYS30    0.0000
    41 O          -46.8170     1.2790   -39.7810 O.2          1 TYS30    0.0000
    42 H21        -44.5391    -0.6178   -39.2784 H            1 TYS30    0.0000
    43 H22        -45.1674    -1.7418   -37.2759 H            1 TYS30    0.0000
    44 H23        -46.0292    -2.2609   -38.5622 H            1 TYS30    0.0000
    45 H24        -48.4147    -2.2103   -38.5056 H            1 TYS30    0.0000
    46 H25        -46.2684    -0.0829   -35.6971 H            1 TYS30    0.0000
    47 H26        -50.4295    -1.7623   -37.3050 H            1 TYS30    0.0000
    48 H27        -48.2687     0.3453   -34.4947 H            1 TYS30    0.0000
    49 H28        -45.6811     1.4874   -37.6961 H            1 TYS30    0.0000
    50 N          -42.4960     2.0600   -35.7620 N.am         2 ILE29    0.0000
    51 CA         -43.4280     2.3060   -36.8410 C.3          2 ILE29    0.0000
    52 C          -43.7260     1.0140   -37.5800 C.2          2 ILE29    0.0000
    53 O          -42.8460     0.1870   -37.7950 O.2          2 ILE29    0.0000
    54 CB         -42.8730     3.3920   -37.7990 C.3          2 ILE29    0.0000
    55 CG1        -42.6030     4.6840   -37.0180 C.3          2 ILE29    0.0000
    56 CG2        -43.8180     3.6560   -38.9810 C.3          2 ILE29    0.0000
    57 CD1        -41.7120     5.6740   -37.7890 C.3          2 ILE29    0.0000
    58 H10        -44.2820     2.6444   -36.4457 H            2 ILE29    0.0000
    59 HB         -42.0023     3.0648   -38.1662 H            2 ILE29    0.0000
    60 HG11       -42.1491     4.4485   -36.1586 H            2 ILE29    0.0000
    61 HG12       -43.4777     5.1274   -36.8224 H            2 ILE29    0.0000
    62 HG21       -43.4240     4.3600   -39.5719 H            2 ILE29    0.0000
    63 HG22       -43.9414     2.8126   -39.5039 H            2 ILE29    0.0000
    64 HG23       -44.7037     3.9673   -38.6366 H            2 ILE29    0.0000
    65 HD11       -41.5692     6.4946   -37.2356 H            2 ILE29    0.0000
    66 HD12       -40.8296     5.2459   -37.9843 H            2 ILE29    0.0000
    67 HD13       -42.1583     5.9248   -38.6480 H            2 ILE29    0.0000
    68 H20        -41.5164     2.0748   -35.9622 H            2 ILE29    0.0000
    69 N          -46.8660    -0.8190   -40.5520 N.am         3 THR31    0.0000
    70 CA         -47.8380    -0.5190   -41.5680 C.3          3 THR31    0.0000
    71 C          -48.8810    -1.6350   -41.4760 C.2          3 THR31    0.0000
    72 O          -48.5800    -2.6950   -40.9650 O.2          3 THR31    0.0000
    73 CB         -47.0820    -0.4740   -42.9340 C.3          3 THR31    0.0000
    74 OG1        -46.8010     0.8850   -43.3000 O.3          3 THR31    0.0000
    75 CG2        -47.8220    -1.1030   -43.9720 C.3          3 THR31    0.0000
    76 H29        -48.2654     0.3660   -41.3832 H            3 THR31    0.0000
    77 H30        -46.2132    -0.9579   -42.8291 H            3 THR31    0.0000
    78 HG1        -47.6589     1.3919   -43.3838 H            3 THR31    0.0000
    79 H32        -47.3056    -1.0530   -44.8269 H            3 THR31    0.0000
    80 H33        -47.9813    -2.0612   -43.7343 H            3 THR31    0.0000
    81 H34        -48.6997    -0.6373   -44.0850 H            3 THR31    0.0000
    82 H35        -46.5371    -1.7575   -40.4473 H            3 THR31    0.0000
    83 N          -50.1050    -1.4120   -41.9350 N.am         4 GLN32    0.0000
    84 CA         -51.1110    -2.4710   -41.8520 C.3          4 GLN32    0.0000
    85 C          -52.2080    -2.3080   -42.8770 C.2          4 GLN32    0.0000
    86 O          -53.1440    -3.0990   -42.8750 O.co2        4 GLN32    0.0000
    87 CB         -51.7400    -2.5410   -40.4570 C.3          4 GLN32    0.0000
    88 CG         -52.4540    -1.2790   -40.0380 C.3          4 GLN32    0.0000
    89 CD         -53.1670    -1.4540   -38.7030 C.2          4 GLN32    0.0000
    90 OE1        -53.6720    -2.5310   -38.4000 O.2          4 GLN32    0.0000
    91 NE2        -53.1920    -0.4010   -37.9030 N.am         4 GLN32    0.0000
    92 OXT        -52.1630    -1.4090   -43.7090 O.co2        4 GLN32   -1.0000
    93 H36        -50.3388    -0.5259   -42.3352 H            4 GLN32    0.0000
    94 H37        -50.6541    -3.3431   -42.0271 H            4 GLN32    0.0000
    95 H38        -51.0142    -2.7258   -39.7943 H            4 GLN32    0.0000
    96 H39        -52.3995    -3.2927   -40.4474 H            4 GLN32    0.0000
    97 H40        -53.1281    -1.0404   -40.7370 H            4 GLN32    0.0000
    98 HG2        -51.7851    -0.5404   -39.9541 H            4 GLN32    0.0000
    99 HE21       -53.6464    -0.4591   -37.0141 H            4 GLN32    0.0000
   100 HE22       -52.7565     0.4532   -38.1870 H            4 GLN32    0.0000
   101 H44        -41.5208     1.6769   -31.4941 H            4 GLN32    0.0000
@<TRIPOS>BOND
     1    1    2       1
     2    2    3       1
     3    2   15       1
     4    3    4       1
     5    4    5      ar
     6    4    6      ar
     7    5    7      ar
     8    6    8      ar
     9    7    9      ar
    10    8    9      ar
    11    9   10       1
    12   10   11       1
    13   11   12      ar
    14   11   13      ar
    15   11   14      ar
    16   15   16       2
    17    1   17       1
    18    1   18       1
    19    2   19       1
    20    3   20       1
    21    3   21       1
    22    5   22       1
    23    6   23       1
    24    7   24       1
    25    8   25       1
    26    1  101       1
    27   57   67       1
    28   15   50      am
    29   50   51       1
    30   51   54       1
    31   51   52       1
    32   54   56       1
    33   54   55       1
    34   55   57       1
    35   52   53       2
    36   57   66       1
    37   57   65       1
    38   51   58       1
    39   75   81       1
    40   54   59       1
    41   55   60       1
    42   55   61       1
    43   56   62       1
    44   56   63       1
    45   56   64       1
    46   50   68       1
    47   52   26      am
    48   26   27       1
    49   27   28       1
    50   27   40       1
    51   28   29       1
    52   29   30      ar
    53   29   31      ar
    54   30   32      ar
    55   31   33      ar
    56   32   34      ar
    57   33   34      ar
    58   34   35       1
    59   35   36       1
    60   36   37      ar
    61   36   38      ar
    62   36   39      ar
    63   40   41       2
    64   91   99       1
    65   33   48       1
    66   27   42       1
    67   28   43       1
    68   28   44       1
    69   30   45       1
    70   31   46       1
    71   32   47       1
    72   26   49       1
    73   40   69      am
    74   69   70       1
    75   70   73       1
    76   70   71       1
    77   73   75       1
    78   73   74       1
    79   71   72       2
    80   75   80       1
    81   75   79       1
    82   70   76       1
    83   71   83      am
    84   73   77       1
    85   74   78       1
    86   69   82       1
    87   83   84       1
    88   84   87       1
    89   84   85       1
    90   87   88       1
    91   88   89       1
    92   89   90       2
    93   89   91      am
    94   85   86      ar
    95   85   92      ar
    96   91  100       1
    97   83   93       1
    98   84   94       1
    99   87   95       1
   100   87   96       1
   101   88   97       1
   102   88   98       1
@<TRIPOS>SUBSTRUCTURE
     1 TYS30       1 GROUP             4 P     TYS     0 **** TYS P  30
     2 ILE29      50 RESIDUE           4 P     ILE     0 **** ILE P  29
     3 THR31      69 RESIDUE           4 P     THR     0 **** THR P  31
     4 GLN32      83 RESIDUE           4 P     GLN     0 **** GLN P  32
