@<TRIPOS>MOLECULE
3liv_E16_1_ligand
  101   103     1     0     0
SMALL
NO_CHARGES


@<TRIPOS>ATOM
     1 CBF         23.7120    29.3370    26.4580 C.2          1 E16117   0.0000
     2 NAJ         25.7050    28.0970    27.3270 N.4          1 E16117   1.0000
     3 OAK         23.8980    29.0550    25.3150 O.2          1 E16117   0.0000
     4 CBM         24.8670    29.2960    27.4920 C.3          1 E16117   0.0000
     5 CBK         25.7700    30.5520    27.2830 C.ar         1 E16117   0.0000
     6 CAQ         27.5680    33.0880    26.8990 C.ar         1 E16117   0.0000
     7 CAT         26.7320    32.5300    25.7180 C.ar         1 E16117   0.0000
     8 CAU         27.5010    32.3680    28.2740 C.ar         1 E16117   0.0000
     9 CAX         25.8410    31.2760    25.9130 C.ar         1 E16117   0.0000
    10 CAY         26.6090    31.1140    28.4670 C.ar         1 E16117   0.0000
    11 N           22.3840    29.7500    26.9040 N.am         1 E16117   0.0000
    12 CA          21.3470    29.8290    25.8950 C.3          1 E16117   0.0000
    13 CB          20.2810    28.7180    26.1320 C.3          1 E16117   0.0000
    14 CAG         20.7760    27.3870    25.5340 C.3          1 E16117   0.0000
    15 CG1         20.0240    28.5190    27.6390 C.3          1 E16117   0.0000
    16 CG2         18.9670    29.1140    25.4120 C.3          1 E16117   0.0000
    17 C           20.7370    31.2540    25.9530 C.2          1 E16117   0.0000
    18 O           20.1290    31.6820    26.8930 O.2          1 E16117   0.0000
    19 CBI         18.3150    34.2340    23.6120 C.2          1 E16117   0.0000
    20 NBC         20.9440    32.0580    24.7580 N.am         1 E16117   0.0000
    21 OAN         18.3900    35.2970    23.1310 O.2          1 E16117   0.0000
    22 CBN         19.4260    33.2100    23.5060 C.3          1 E16117   0.0000
    23 CBJ         22.1300    34.6500    25.7600 C.ar         1 E16117   0.0000
    24 CBA         21.3870    34.4810    24.4530 C.3          1 E16117   0.0000
    25 CAP         23.6290    34.9920    28.3910 C.ar         1 E16117   0.0000
    26 CBO         20.3520    33.3800    24.7090 C.3          1 E16117   0.0000
    27 OAO         20.1050    33.3260    22.2930 O.3          1 E16117   0.0000
    28 CAV         21.7810    35.8170    26.6560 C.ar         1 E16117   0.0000
    29 CAW         23.2140    33.6490    26.1460 C.ar         1 E16117   0.0000
    30 CAR         22.5370    35.9930    27.9810 C.ar         1 E16117   0.0000
    31 CAS         23.9670    33.8080    27.4670 C.ar         1 E16117   0.0000
    32 CBH         16.4600    36.0630    25.3670 C.2          1 E16117   0.0000
    33 NBR         17.1060    33.8910    24.3080 N.am         1 E16117   0.0000
    34 OAM         17.3890    35.8970    26.0780 O.2          1 E16117   0.0000
    35 CBQ         15.9500    34.9560    24.4240 C.3          1 E16117   0.0000
    36 CBU         14.7020    34.1420    24.9520 C.3          1 E16117   0.0000
    37 CAZ         16.7630    32.5660    25.0250 C.3          1 E16117   0.0000
    38 CAH         13.6280    34.9570    25.7130 C.3          1 E16117   0.0000
    39 CAI         14.0340    33.5620    23.7020 C.3          1 E16117   0.0000
    40 SBE         15.4040    32.8580    25.9680 S.3          1 E16117   0.0000
    41 NBB         15.7780    37.3420    25.3780 N.am         1 E16117   0.0000
    42 CBL         16.2100    38.3910    26.2930 C.3          1 E16117   0.0000
    43 CBS         17.4580    39.2080    25.8250 C.3          1 E16117   0.0000
    44 CAA         14.9320    39.2430    26.4810 C.3          1 E16117   0.0000
    45 CAB         18.6140    38.3280    25.2760 C.3          1 E16117   0.0000
    46 CAC         16.9860    40.2530    24.7670 C.3          1 E16117   0.0000
    47 CAD         18.0890    39.8810    27.0570 C.3          1 E16117   0.0000
    48 HAJ1        26.6457    28.3725    27.1291 H            1 E16117   0.0000
    49 HAJ2        25.6856    27.5583    28.1693 H            1 E16117   0.0000
    50 HBM         24.4861    29.3106    28.4165 H            1 E16117   0.0000
    51 HAQ         28.1411    33.8984    26.7774 H            1 E16117   0.0000
    52 HAT         26.7677    32.9811    24.8263 H            1 E16117   0.0000
    53 HAU         28.0382    32.7165    29.0421 H            1 E16117   0.0000
    54 HAX         25.3041    30.9288    25.1441 H            1 E16117   0.0000
    55 HAY         26.5727    30.6633    29.3589 H            1 E16117   0.0000
    56 H9          22.1988    29.9683    27.8621 H            1 E16117   0.0000
    57 HA          21.7613    29.6918    24.9952 H            1 E16117   0.0000
    58 HAG1        20.0893    26.6765    25.6880 H            1 E16117   0.0000
    59 HAG2        20.9259    27.4983    24.5516 H            1 E16117   0.0000
    60 HAG3        21.6340    27.1224    25.9743 H            1 E16117   0.0000
    61 HG11        19.3380    27.8030    27.7685 H            1 E16117   0.0000
    62 HG12        20.8753    28.2504    28.0897 H            1 E16117   0.0000
    63 HG13        19.6920    29.3745    28.0363 H            1 E16117   0.0000
    64 HG21        18.2785    28.4042    25.5606 H            1 E16117   0.0000
    65 HG22        18.6346    29.9828    25.7790 H            1 E16117   0.0000
    66 HG23        19.1400    29.2105    24.4318 H            1 E16117   0.0000
    67 HBC         21.4808    31.7075    23.9905 H            1 E16117   0.0000
    68 HBN         19.0176    32.2983    23.5509 H            1 E16117   0.0000
    69 HBA1        22.0166    34.2065    23.7262 H            1 E16117   0.0000
    70 HBA2        20.9332    35.3343    24.1962 H            1 E16117   0.0000
    71 HAP         24.1183    35.1095    29.2552 H            1 E16117   0.0000
    72 HBO         19.8280    33.5681    25.5397 H            1 E16117   0.0000
    73 HAO         19.6669    32.7431    21.6087 H            1 E16117   0.0000
    74 HAV         21.0677    36.4652    26.3894 H            1 E16117   0.0000
    75 HAW         23.4323    32.8883    25.5347 H            1 E16117   0.0000
    76 HAR         22.3177    36.7629    28.5803 H            1 E16117   0.0000
    77 HAS         24.6724    33.1491    27.7284 H            1 E16117   0.0000
    78 HBQ         15.7496    35.3411    23.5232 H            1 E16117   0.0000
    79 HAZ1        17.5274    32.2800    25.6029 H            1 E16117   0.0000
    80 HAZ2        16.5679    31.8519    24.3527 H            1 E16117   0.0000
    81 HAH1        12.8887    34.3479    26.0001 H            1 E16117   0.0000
    82 HAH2        14.0410    35.3825    26.5182 H            1 E16117   0.0000
    83 HAH3        13.2606    35.6670    25.1122 H            1 E16117   0.0000
    84 HAI1        13.2301    33.0309    23.9697 H            1 E16117   0.0000
    85 HAI2        13.7546    34.3076    23.0970 H            1 E16117   0.0000
    86 HAI3        14.6811    32.9688    23.2231 H            1 E16117   0.0000
    87 HBB         15.0108    37.5047    24.7576 H            1 E16117   0.0000
    88 HBL         16.4301    37.9651    27.1706 H            1 E16117   0.0000
    89 HAA1        15.1258    40.0020    27.1026 H            1 E16117   0.0000
    90 HAA2        14.6387    39.6038    25.5957 H            1 E16117   0.0000
    91 HAA3        14.2056    38.6738    26.8662 H            1 E16117   0.0000
    92 HAB1        19.3750    38.9136    24.9968 H            1 E16117   0.0000
    93 HAB2        18.9219    37.6989    25.9898 H            1 E16117   0.0000
    94 HAB3        18.2894    37.8049    24.4880 H            1 E16117   0.0000
    95 HAC1        17.7707    40.7877    24.4535 H            1 E16117   0.0000
    96 HAC2        16.5746    39.7776    23.9894 H            1 E16117   0.0000
    97 HAC3        16.3102    40.8635    25.1800 H            1 E16117   0.0000
    98 HAD1        18.8902    40.4087    26.7748 H            1 E16117   0.0000
    99 HAD2        17.4207    40.4913    27.4823 H            1 E16117   0.0000
   100 HAD3        18.3661    39.1802    27.7143 H            1 E16117   0.0000
   101 HAJ3        25.3529    27.5458    26.5706 H            1 E16117   0.0000
@<TRIPOS>BOND
     1    1    3       2
     2    1    4       1
     3    1   11      am
     4    2    4       1
     5    4    5       1
     6    5    9      ar
     7    5   10      ar
     8    6    7      ar
     9    6    8      ar
    10    7    9      ar
    11    8   10      ar
    12   11   12       1
    13   12   13       1
    14   12   17       1
    15   13   14       1
    16   13   15       1
    17   13   16       1
    18   17   18       2
    19   17   20      am
    20   19   21       2
    21   19   22       1
    22   19   33      am
    23   20   26       1
    24   22   26       1
    25   22   27       1
    26   23   24       1
    27   23   28      ar
    28   23   29      ar
    29   24   26       1
    30   25   30      ar
    31   25   31      ar
    32   28   30      ar
    33   29   31      ar
    34   32   34       2
    35   32   35       1
    36   32   41      am
    37   33   35       1
    38   33   37       1
    39   35   36       1
    40   36   38       1
    41   36   39       1
    42   36   40       1
    43   37   40       1
    44   41   42       1
    45   42   43       1
    46   42   44       1
    47   43   45       1
    48   43   46       1
    49   43   47       1
    50    2   48       1
    51    2   49       1
    52    4   50       1
    53    6   51       1
    54    7   52       1
    55    8   53       1
    56    9   54       1
    57   10   55       1
    58   11   56       1
    59   12   57       1
    60   14   58       1
    61   14   59       1
    62   14   60       1
    63   15   61       1
    64   15   62       1
    65   15   63       1
    66   16   64       1
    67   16   65       1
    68   16   66       1
    69   20   67       1
    70   22   68       1
    71   24   69       1
    72   24   70       1
    73   25   71       1
    74   26   72       1
    75   27   73       1
    76   28   74       1
    77   29   75       1
    78   30   76       1
    79   31   77       1
    80   35   78       1
    81   37   79       1
    82   37   80       1
    83   38   81       1
    84   38   82       1
    85   38   83       1
    86   39   84       1
    87   39   85       1
    88   39   86       1
    89   41   87       1
    90   42   88       1
    91   44   89       1
    92   44   90       1
    93   44   91       1
    94   45   92       1
    95   45   93       1
    96   45   94       1
    97   46   95       1
    98   46   96       1
    99   46   97       1
   100   47   98       1
   101   47   99       1
   102   47  100       1
   103    2  101       1
@<TRIPOS>SUBSTRUCTURE
     1 E16117      1 GROUP             4 B     E16     0 **** E16 B 117
