@<TRIPOS>MOLECULE
3nz4_TCA_2_ligand
   18    18     1     0     0
SMALL
NO_CHARGES


@<TRIPOS>ATOM
     1 C1         -20.2000    12.3870    24.5400 C.2          1 TCA699   0.0000
     2 O          -19.8430    13.5580    24.2910 O.co2        1 TCA699   0.0000
     3 OXT        -21.1560    11.8240    23.9570 O.co2        1 TCA699  -1.0000
     4 C2         -19.4370    11.6490    25.5530 C.2          1 TCA699   0.0000
     5 C3         -19.3510    10.3280    25.4730 C.2          1 TCA699   0.0000
     6 C31        -18.5730     9.5910    26.4820 C.ar         1 TCA699   0.0000
     7 C32        -18.5080     8.2020    26.4170 C.ar         1 TCA699   0.0000
     8 C33        -17.7640     7.5130    27.3670 C.ar         1 TCA699   0.0000
     9 C34        -17.0930     8.2120    28.3700 C.ar         1 TCA699   0.0000
    10 C35        -17.1550     9.6030    28.4230 C.ar         1 TCA699   0.0000
    11 C36        -17.8980    10.2970    27.4730 C.ar         1 TCA699   0.0000
    12 H1         -18.9850    12.1387    26.2985 H            1 TCA699   0.0000
    13 H2         -19.8109     9.8367    24.7333 H            1 TCA699   0.0000
    14 H3         -18.9909     7.7060    25.6953 H            1 TCA699   0.0000
    15 H4         -17.7097     6.5151    27.3314 H            1 TCA699   0.0000
    16 H5         -16.5640     7.7118    29.0555 H            1 TCA699   0.0000
    17 H6         -16.6676    10.1004    29.1407 H            1 TCA699   0.0000
    18 H7         -17.9465    11.2954    27.5022 H            1 TCA699   0.0000
@<TRIPOS>BOND
     1    1    2      ar
     2    1    3      ar
     3    1    4       1
     4    4    5       2
     5    5    6       1
     6    6    7      ar
     7    6   11      ar
     8    7    8      ar
     9    8    9      ar
    10    9   10      ar
    11   10   11      ar
    12   11   18       1
    13    4   12       1
    14    5   13       1
    15    7   14       1
    16    8   15       1
    17    9   16       1
    18   10   17       1
@<TRIPOS>SUBSTRUCTURE
     1 TCA699      1 GROUP             4 B     TCA     0 **** TCA B 699
