@<TRIPOS>MOLECULE
3m0o_FAD_1_ligand
   84    89     1     0     0
SMALL
NO_CHARGES


@<TRIPOS>ATOM
     1 PA           4.6190    38.4910    37.1330 P.3          1 FAD400   0.0000
     2 O1A          5.4520    39.7100    36.7960 O.co2        1 FAD400   0.0000
     3 O2A          3.6500    37.9890    36.1240 O.co2        1 FAD400  -1.0000
     4 O5B          3.7720    38.6870    38.5030 O.3          1 FAD400   0.0000
     5 C5B          4.3560    39.2850    39.6450 C.3          1 FAD400   0.0000
     6 C4B          3.3290    40.2850    40.1710 C.3          1 FAD400   0.0000
     7 O4B          3.8260    40.6890    41.4430 O.3          1 FAD400   0.0000
     8 C3B          3.1970    41.5650    39.3270 C.3          1 FAD400   0.0000
     9 O3B          1.7940    41.6750    38.9930 O.3          1 FAD400   0.0000
    10 C2B          3.6770    42.6930    40.2550 C.3          1 FAD400   0.0000
    11 O2B          2.9350    43.9130    40.1550 O.3          1 FAD400   0.0000
    12 C1B          3.4370    42.0550    41.6150 C.3          1 FAD400   0.0000
    13 N9A          4.2010    42.6310    42.7310 N.pl3        1 FAD400   0.0000
    14 C8A          5.5220    42.9080    42.7130 C.2          1 FAD400   0.0000
    15 N7A          5.8670    43.4030    43.9270 N.2          1 FAD400   0.0000
    16 C5A          4.7440    43.4090    44.6850 C.ar         1 FAD400   0.0000
    17 C6A          4.4940    43.8340    46.0770 C.ar         1 FAD400   0.0000
    18 N6A          5.5190    44.3110    46.8330 N.pl3        1 FAD400   0.0000
    19 N1A          3.2310    43.7340    46.5410 N.ar         1 FAD400   0.0000
    20 C2A          2.2470    43.2500    45.7480 C.ar         1 FAD400   0.0000
    21 N3A          2.4510    42.8440    44.4820 N.ar         1 FAD400   0.0000
    22 C4A          3.6980    42.9260    43.9400 C.ar         1 FAD400   0.0000
    23 N1           7.6270    32.2080    29.4240 N.2          1 FAD400   0.0000
    24 C2           7.1920    31.1740    28.6530 C.2          1 FAD400   0.0000
    25 O2           6.7760    30.0450    29.2390 O.2          1 FAD400   0.0000
    26 N3           7.1480    31.2300    27.3110 N.pl3        1 FAD400   0.0000
    27 C4           7.5570    32.3520    26.6980 C.2          1 FAD400   0.0000
    28 O4           7.5420    32.4810    25.3750 O.2          1 FAD400   0.0000
    29 C4X          8.0330    33.4890    27.4870 C.2          1 FAD400   0.0000
    30 N5           8.4490    34.6210    26.8650 N.2          1 FAD400   0.0000
    31 C5X          8.8260    35.6740    27.6230 C.ar         1 FAD400   0.0000
    32 C6           9.1970    36.8510    27.0070 C.ar         1 FAD400   0.0000
    33 C7           9.5830    37.9380    27.7770 C.ar         1 FAD400   0.0000
    34 C7M         10.0180    39.1930    27.0480 C.3          1 FAD400   0.0000
    35 C8           9.5910    37.8340    29.1670 C.ar         1 FAD400   0.0000
    36 C8M         10.0590    38.9490    30.0490 C.3          1 FAD400   0.0000
    37 C9           9.2020    36.6550    29.7850 C.ar         1 FAD400   0.0000
    38 C9A          8.8090    35.5760    29.0170 C.ar         1 FAD400   0.0000
    39 N10          8.4150    34.3660    29.6330 N.pl3        1 FAD400   0.0000
    40 C10          8.0250    33.3580    28.8740 C.2          1 FAD400   0.0000
    41 C1'          8.4780    34.1620    31.0880 C.3          1 FAD400   0.0000
    42 C2'          7.2150    34.3870    31.8660 C.3          1 FAD400   0.0000
    43 O2'          6.5760    35.5040    31.2380 O.3          1 FAD400   0.0000
    44 C3'          7.6240    34.6130    33.3030 C.3          1 FAD400   0.0000
    45 O3'          8.3640    33.4980    33.7790 O.3          1 FAD400   0.0000
    46 C4'          6.3580    34.6640    34.1520 C.3          1 FAD400   0.0000
    47 O4'          5.5190    35.6610    33.5800 O.3          1 FAD400   0.0000
    48 C5'          6.7070    35.0220    35.5890 C.3          1 FAD400   0.0000
    49 O5'          5.4490    35.1480    36.2520 O.3          1 FAD400   0.0000
    50 P            5.4060    35.7640    37.7250 P.3          1 FAD400   0.0000
    51 O1P          6.5900    35.2510    38.4990 O.co2        1 FAD400   0.0000
    52 O2P          3.9690    35.5730    38.2670 O.co2        1 FAD400  -1.0000
    53 O3P          5.6470    37.3310    37.5360 O.3          1 FAD400   0.0000
    54 H5B1         5.2025    39.7555    39.3959 H            1 FAD400   0.0000
    55 H5B2         4.5517    38.5914    40.3382 H            1 FAD400   0.0000
    56 H4B          2.4372    39.8440    40.2723 H            1 FAD400   0.0000
    57 H3B          3.7605    41.5125    38.5025 H            1 FAD400   0.0000
    58 H5           1.2553    41.7377    39.8331 H            1 FAD400   0.0000
    59 H2B          4.6524    42.8659    40.1181 H            1 FAD400   0.0000
    60 H7           1.9772    43.7404    40.3846 H            1 FAD400   0.0000
    61 H1B          2.4610    42.0946    41.8293 H            1 FAD400   0.0000
    62 H8A          6.1393    42.7717    41.9382 H            1 FAD400   0.0000
    63 H6A1         5.3527    44.5995    47.7759 H            1 FAD400   0.0000
    64 H6A2         6.4390    44.3732    46.4460 H            1 FAD400   0.0000
    65 H2A          1.3215    43.1912    46.1221 H            1 FAD400   0.0000
    66 H13          6.8168    30.4506    26.7791 H            1 FAD400   0.0000
    67 H14          9.1877    36.9203    26.0094 H            1 FAD400   0.0000
    68 H7M1        10.2686    39.8955    27.7141 H            1 FAD400   0.0000
    69 H7M2        10.8068    38.9859    26.4693 H            1 FAD400   0.0000
    70 H7M3         9.2657    39.5259    26.4795 H            1 FAD400   0.0000
    71 H8M1         9.9835    38.6707    31.0065 H            1 FAD400   0.0000
    72 H8M2        11.0129    39.1628    29.8382 H            1 FAD400   0.0000
    73 H8M3         9.4933    39.7584    29.8915 H            1 FAD400   0.0000
    74 H21          9.2060    36.5862    30.7826 H            1 FAD400   0.0000
    75 H1'1         9.1699    34.7868    31.4499 H            1 FAD400   0.0000
    76 H1'2         8.7656    33.2176    31.2474 H            1 FAD400   0.0000
    77 H2'          6.6282    33.5798    31.8025 H            1 FAD400   0.0000
    78 H25          6.8871    36.3513    31.6685 H            1 FAD400   0.0000
    79 H3'          8.1510    35.4578    33.3960 H            1 FAD400   0.0000
    80 H27          9.2763    33.7979    34.0579 H            1 FAD400   0.0000
    81 H4'          5.8966    33.7772    34.1261 H            1 FAD400   0.0000
    82 H29          4.6728    35.7280    34.1087 H            1 FAD400   0.0000
    83 H5'1         7.2112    35.8849    35.6241 H            1 FAD400   0.0000
    84 H5'2         7.2550    34.2984    36.0087 H            1 FAD400   0.0000
@<TRIPOS>BOND
     1    1    2      ar
     2    1    3      ar
     3    1    4       1
     4    1   53       1
     5    4    5       1
     6    5    6       1
     7    6    7       1
     8    6    8       1
     9    7   12       1
    10    8    9       1
    11    8   10       1
    12   10   11       1
    13   10   12       1
    14   12   13       1
    15   13   14       1
    16   13   22       1
    17   14   15       2
    18   15   16       1
    19   16   17      ar
    20   16   22      ar
    21   17   18       1
    22   17   19      ar
    23   19   20      ar
    24   20   21      ar
    25   21   22      ar
    26   23   24       1
    27   23   40       2
    28   24   25       2
    29   24   26       1
    30   26   27       1
    31   27   28       2
    32   27   29       1
    33   29   30       2
    34   29   40       1
    35   30   31       1
    36   31   32      ar
    37   31   38      ar
    38   32   33      ar
    39   33   34       1
    40   33   35      ar
    41   35   36       1
    42   35   37      ar
    43   37   38      ar
    44   38   39       1
    45   39   40       1
    46   39   41       1
    47   41   42       1
    48   42   43       1
    49   42   44       1
    50   44   45       1
    51   44   46       1
    52   46   47       1
    53   46   48       1
    54   48   49       1
    55   49   50       1
    56   50   51      ar
    57   50   52      ar
    58   50   53       1
    59   48   84       1
    60    5   54       1
    61    5   55       1
    62    6   56       1
    63    8   57       1
    64    9   58       1
    65   10   59       1
    66   11   60       1
    67   12   61       1
    68   14   62       1
    69   18   63       1
    70   18   64       1
    71   20   65       1
    72   26   66       1
    73   32   67       1
    74   34   68       1
    75   34   69       1
    76   34   70       1
    77   36   71       1
    78   36   72       1
    79   36   73       1
    80   37   74       1
    81   41   75       1
    82   41   76       1
    83   42   77       1
    84   43   78       1
    85   44   79       1
    86   45   80       1
    87   46   81       1
    88   47   82       1
    89   48   83       1
@<TRIPOS>SUBSTRUCTURE
     1 FAD400      1 GROUP             4 A     FAD     0 **** FAD A 400
