@<TRIPOS>MOLECULE
4fn4_NAD_3_ligand
   70    74     1     0     0
SMALL
NO_CHARGES


@<TRIPOS>ATOM
     1 PA           4.3000    66.1090    17.8850 P.3          1 NAD501   0.0000
     2 O1A          4.8020    67.4970    17.9500 O.co2        1 NAD501   0.0000
     3 O2A          3.0620    65.7420    18.6520 O.co2        1 NAD501  -1.0000
     4 O5B          4.1320    65.7770    16.3520 O.3          1 NAD501   0.0000
     5 C5B          3.5570    64.5130    15.9260 C.3          1 NAD501   0.0000
     6 C4B          2.6490    64.7820    14.7420 C.3          1 NAD501   0.0000
     7 O4B          2.1070    63.4360    14.4510 O.3          1 NAD501   0.0000
     8 C3B          1.4070    65.6770    15.0920 C.3          1 NAD501   0.0000
     9 O3B          1.2940    66.7700    14.1210 O.3          1 NAD501   0.0000
    10 C2B          0.2170    64.7560    15.0660 C.3          1 NAD501   0.0000
    11 O2B         -1.0150    65.2840    14.7370 O.3          1 NAD501   0.0000
    12 C1B          0.7310    63.6080    14.1590 C.3          1 NAD501   0.0000
    13 N9A          0.0540    62.3770    14.5000 N.pl3        1 NAD501   0.0000
    14 C8A         -0.2640    61.7770    15.7140 C.2          1 NAD501   0.0000
    15 N7A         -0.9150    60.6350    15.5860 N.2          1 NAD501   0.0000
    16 C5A         -1.0640    60.4120    14.2750 C.ar         1 NAD501   0.0000
    17 C6A         -1.7000    59.3330    13.5100 C.ar         1 NAD501   0.0000
    18 N6A         -2.2950    58.3040    14.0900 N.pl3        1 NAD501   0.0000
    19 N1A         -1.6290    59.4830    12.1350 N.ar         1 NAD501   0.0000
    20 C2A         -1.0420    60.5080    11.4820 C.ar         1 NAD501   0.0000
    21 N3A         -0.4310    61.5670    12.1710 N.ar         1 NAD501   0.0000
    22 C4A         -0.4630    61.4780    13.5630 C.ar         1 NAD501   0.0000
    23 O3           5.4110    65.0370    18.3230 O.3          1 NAD501   0.0000
    24 PN           7.0220    64.9330    18.0740 P.3          1 NAD501   0.0000
    25 O1N          7.6080    65.1810    19.4000 O.co2        1 NAD501   0.0000
    26 O2N          7.3330    65.7950    16.9010 O.co2        1 NAD501  -1.0000
    27 O5D          7.3210    63.4090    17.8310 O.3          1 NAD501   0.0000
    28 C5D          7.0620    62.6910    16.6550 C.3          1 NAD501   0.0000
    29 C4D          7.9040    61.4730    16.8170 C.3          1 NAD501   0.0000
    30 O4D          9.1430    61.7580    17.6790 O.3          1 NAD501   0.0000
    31 C3D          7.1590    60.3470    17.5840 C.3          1 NAD501   0.0000
    32 O3D          7.4500    59.0750    17.0110 O.3          1 NAD501   0.0000
    33 C2D          7.7100    60.4470    19.0130 C.3          1 NAD501   0.0000
    34 O2D          7.4610    59.2960    19.7710 O.3          1 NAD501   0.0000
    35 C1D          9.2210    60.7490    18.7220 C.3          1 NAD501   0.0000
    36 N1N          9.9970    61.2490    19.9160 N.ar         1 NAD501   1.0000
    37 C2N          9.6820    62.5340    20.5000 C.ar         1 NAD501   0.0000
    38 C3N         10.3550    63.0070    21.5730 C.ar         1 NAD501   0.0000
    39 C7N         10.0250    64.3540    22.1790 C.2          1 NAD501   0.0000
    40 O7N         10.4290    64.5940    23.3450 O.2          1 NAD501   0.0000
    41 N7N          9.3190    65.2470    21.4690 N.am         1 NAD501   0.0000
    42 C4N         11.4840    62.2280    22.2370 C.ar         1 NAD501   0.0000
    43 C5N         11.7770    60.8920    21.5870 C.ar         1 NAD501   0.0000
    44 C6N         11.0290    60.4570    20.4630 C.ar         1 NAD501   0.0000
    45 H5B1         3.0282    64.1122    16.6742 H            1 NAD501   0.0000
    46 H5B2         4.2856    63.8828    15.6578 H            1 NAD501   0.0000
    47 H4B          3.1588    65.1490    13.9639 H            1 NAD501   0.0000
    48 H3B          1.5164    66.0561    16.0109 H            1 NAD501   0.0000
    49 H5           1.1799    66.3900    13.2031 H            1 NAD501   0.0000
    50 H2B          0.1290    64.3759    15.9867 H            1 NAD501   0.0000
    51 H7          -0.9749    65.6764    13.8181 H            1 NAD501   0.0000
    52 H1B          0.5978    63.8312    13.1934 H            1 NAD501   0.0000
    53 H8A         -0.0225    62.1729    16.6000 H            1 NAD501   0.0000
    54 H6A1        -2.7164    57.5899    13.5310 H            1 NAD501   0.0000
    55 H6A2        -2.3235    58.2401    15.0875 H            1 NAD501   0.0000
    56 H2A         -1.0425    60.5130    10.4820 H            1 NAD501   0.0000
    57 H5D1         7.3358    63.2129    15.8471 H            1 NAD501   0.0000
    58 H5D2         6.0934    62.4522    16.5851 H            1 NAD501   0.0000
    59 H4D          8.1882    61.1378    15.9187 H            1 NAD501   0.0000
    60 H3D          6.1732    60.5146    17.5781 H            1 NAD501   0.0000
    61 H17          7.6301    59.1832    16.0333 H            1 NAD501   0.0000
    62 H2D          7.2990    61.2363    19.4692 H            1 NAD501   0.0000
    63 H19          7.8390    59.4134    20.6893 H            1 NAD501   0.0000
    64 H1D          9.6610    59.9277    18.3588 H            1 NAD501   0.0000
    65 H2N          8.9494    63.0855    20.1009 H            1 NAD501   0.0000
    66 H7N1         9.0983    66.1384    21.8648 H            1 NAD501   0.0000
    67 H7N2         9.0135    65.0212    20.5440 H            1 NAD501   0.0000
    68 H4N         11.9867    62.5688    23.0314 H            1 NAD501   0.0000
    69 H5N         12.5041    60.3114    21.9533 H            1 NAD501   0.0000
    70 H6N         11.2373    59.5706    20.0496 H            1 NAD501   0.0000
@<TRIPOS>BOND
     1    1    2      ar
     2    1    3      ar
     3    1    4       1
     4    1   23       1
     5    4    5       1
     6    5    6       1
     7    6    7       1
     8    6    8       1
     9    7   12       1
    10    8    9       1
    11    8   10       1
    12   10   11       1
    13   10   12       1
    14   12   13       1
    15   13   14       1
    16   13   22       1
    17   14   15       2
    18   15   16       1
    19   16   17      ar
    20   16   22      ar
    21   17   18       1
    22   17   19      ar
    23   19   20      ar
    24   20   21      ar
    25   21   22      ar
    26   23   24       1
    27   24   25      ar
    28   24   26      ar
    29   24   27       1
    30   27   28       1
    31   28   29       1
    32   29   30       1
    33   29   31       1
    34   30   35       1
    35   31   32       1
    36   31   33       1
    37   33   34       1
    38   33   35       1
    39   35   36       1
    40   36   37      ar
    41   36   44      ar
    42   37   38      ar
    43   38   39       1
    44   38   42      ar
    45   39   40       2
    46   39   41      am
    47   42   43      ar
    48   43   44      ar
    49   44   70       1
    50    5   45       1
    51    5   46       1
    52    6   47       1
    53    8   48       1
    54    9   49       1
    55   10   50       1
    56   11   51       1
    57   12   52       1
    58   14   53       1
    59   18   54       1
    60   18   55       1
    61   20   56       1
    62   43   69       1
    63   28   57       1
    64   28   58       1
    65   29   59       1
    66   31   60       1
    67   32   61       1
    68   33   62       1
    69   34   63       1
    70   35   64       1
    71   37   65       1
    72   41   66       1
    73   41   67       1
    74   42   68       1
@<TRIPOS>SUBSTRUCTURE
     1 NAD501      1 GROUP             4 C     NAD     0 **** NAD C 501
