@<TRIPOS>MOLECULE
3kie_D5M_8_ligand
   35    37     1     0     0
SMALL
NO_CHARGES


@<TRIPOS>ATOM
     1 O5'         54.9840   -74.9460    28.1960 O.3          1 D5M999   0.0000
     2 C5'         55.1590   -73.7820    27.3830 C.3          1 D5M999   0.0000
     3 C4'         56.6030   -73.6540    26.9220 C.3          1 D5M999   0.0000
     4 O4'         56.9520   -74.7810    26.1010 O.3          1 D5M999   0.0000
     5 C3'         56.8160   -72.4010    26.0720 C.3          1 D5M999   0.0000
     6 O3'         57.7110   -71.5070    26.7370 O.3          1 D5M999   0.0000
     7 C2'         57.4330   -72.8960    24.7790 C.3          1 D5M999   0.0000
     8 C1'         57.8260   -74.3350    25.0610 C.3          1 D5M999   0.0000
     9 N9          57.7110   -75.1990    23.8550 N.pl3        1 D5M999   0.0000
    10 C8          58.7670   -75.7460    23.2250 C.2          1 D5M999   0.0000
    11 N7          58.3870   -76.4630    22.1380 N.2          1 D5M999   0.0000
    12 C5          57.0520   -76.3720    22.0470 C.ar         1 D5M999   0.0000
    13 C6          56.0230   -76.8990    21.1230 C.ar         1 D5M999   0.0000
    14 N6          56.3690   -77.6770    20.0690 N.pl3        1 D5M999   0.0000
    15 N1          54.7330   -76.5750    21.3710 N.ar         1 D5M999   1.0000
    16 C2          54.3980   -75.8000    22.4230 C.ar         1 D5M999   0.0000
    17 N3          55.2840   -75.2880    23.3020 N.ar         1 D5M999   0.0000
    18 C4          56.6090   -75.5250    23.1680 C.ar         1 D5M999   0.0000
    19 P           53.5600   -75.2450    28.8710 P.3          1 D5M999   0.0000
    20 O1P         52.5760   -75.1490    27.7140 O.co2        1 D5M999   0.0000
    21 O3P         53.4000   -74.1470    29.9060 O.co2        1 D5M999  -1.0000
    22 O2P         53.7140   -76.6310    29.4520 O.co2        1 D5M999  -1.0000
    23 H5'1        54.9118   -72.9715    27.9141 H            1 D5M999   0.0000
    24 H5'2        54.5643   -73.8497    26.5819 H            1 D5M999   0.0000
    25 H4'         57.2060   -73.6227    27.7191 H            1 D5M999   0.0000
    26 H3'         55.9423   -71.9495    25.8912 H            1 D5M999   0.0000
    27 H5          57.8452   -70.6906    26.1753 H            1 D5M999   0.0000
    28 H2'1        58.2374   -72.3514    24.5417 H            1 D5M999   0.0000
    29 H2'2        56.7689   -72.8523    24.0327 H            1 D5M999   0.0000
    30 H1'         58.7691   -74.3585    25.3926 H            1 D5M999   0.0000
    31 H9          59.7157   -75.6372    23.5219 H            1 D5M999   0.0000
    32 H10         55.6634   -78.0264    19.4525 H            1 D5M999   0.0000
    33 H11         57.3299   -77.9018    19.9076 H            1 D5M999   0.0000
    34 H12         53.4297   -75.5914    22.5602 H            1 D5M999   0.0000
    35 H13         54.0154   -76.9160    20.7638 H            1 D5M999   0.0000
@<TRIPOS>BOND
     1    1    2       1
     2    1   19       1
     3    2    3       1
     4    3    4       1
     5    3    5       1
     6    4    8       1
     7    5    6       1
     8    5    7       1
     9    7    8       1
    10    8    9       1
    11    9   10       1
    12    9   18       1
    13   10   11       2
    14   11   12       1
    15   12   13      ar
    16   12   18      ar
    17   13   14       1
    18   13   15      ar
    19   15   16      ar
    20   16   17      ar
    21   17   18      ar
    22   19   20      ar
    23   19   21      ar
    24   19   22      ar
    25    2   23       1
    26    2   24       1
    27    3   25       1
    28    5   26       1
    29    6   27       1
    30    7   28       1
    31    7   29       1
    32    8   30       1
    33   10   31       1
    34   14   32       1
    35   14   33       1
    36   16   34       1
    37   15   35       1
@<TRIPOS>SUBSTRUCTURE
     1 D5M999      1 GROUP             4 H     D5M     0 **** D5M H 999
