@<TRIPOS>MOLECULE
1af7_SAH_1_ligand
   46    48     1     0     0
SMALL
NO_CHARGES


@<TRIPOS>ATOM
     1 N           28.2780    22.0890    42.1630 N.4          1 SAH287   1.0000
     2 CA          29.4880    21.4340    42.6680 C.3          1 SAH287   0.0000
     3 CB          29.7260    21.8100    44.1510 C.3          1 SAH287   0.0000
     4 CG          28.6830    21.3110    45.1040 C.3          1 SAH287   0.0000
     5 SD          29.0020    21.5750    46.8870 S.3          1 SAH287   0.0000
     6 C           29.4450    19.8900    42.4540 C.2          1 SAH287   0.0000
     7 O           28.5090    19.4360    41.7560 O.co2        1 SAH287   0.0000
     8 OXT         30.5390    19.2910    42.4350 O.co2        1 SAH287  -1.0000
     9 C5'         27.5230    22.4910    47.2440 C.3          1 SAH287   0.0000
    10 C4'         27.7690    23.9330    47.6120 C.3          1 SAH287   0.0000
    11 O4'         26.5200    24.6240    47.7660 O.3          1 SAH287   0.0000
    12 C3'         28.4970    24.0930    48.9370 C.3          1 SAH287   0.0000
    13 O3'         29.8560    24.4540    48.6970 O.3          1 SAH287   0.0000
    14 C2'         27.7660    25.2090    49.6970 C.3          1 SAH287   0.0000
    15 O2'         28.5670    26.2530    50.2070 O.3          1 SAH287   0.0000
    16 C1'         26.7040    25.6650    48.6900 C.3          1 SAH287   0.0000
    17 N9          25.4260    26.0970    49.2450 N.pl3        1 SAH287   0.0000
    18 C8          24.6900    25.5240    50.2460 C.2          1 SAH287   0.0000
    19 N7          23.6200    26.2040    50.5730 N.2          1 SAH287   0.0000
    20 C5          23.6430    27.2970    49.7170 C.ar         1 SAH287   0.0000
    21 C6          22.8070    28.4240    49.6010 C.ar         1 SAH287   0.0000
    22 N6          21.7370    28.6320    50.3720 N.pl3        1 SAH287   0.0000
    23 N1          23.1200    29.3420    48.6650 N.ar         1 SAH287   0.0000
    24 C2          24.2100    29.1440    47.9050 C.ar         1 SAH287   0.0000
    25 N3          25.0870    28.1280    47.9290 N.ar         1 SAH287   0.0000
    26 C4          24.7420    27.2320    48.8750 C.ar         1 SAH287   0.0000
    27 H1          28.1375    21.8371    41.2055 H            1 SAH287   0.0000
    28 H2          27.4897    21.7957    42.7039 H            1 SAH287   0.0000
    29 HA          30.2614    21.7876    42.1419 H            1 SAH287   0.0000
    30 HB1         29.7558    22.8073    44.2176 H            1 SAH287   0.0000
    31 HB2         30.6083    21.4308    44.4298 H            1 SAH287   0.0000
    32 HG1         28.5843    20.3269    44.9566 H            1 SAH287   0.0000
    33 HG2         27.8233    21.7696    44.8791 H            1 SAH287   0.0000
    34 H5'1        27.0546    22.0469    48.0078 H            1 SAH287   0.0000
    35 H5'2        26.9361    22.4686    46.4347 H            1 SAH287   0.0000
    36 H4'         28.3015    24.3718    46.8882 H            1 SAH287   0.0000
    37 H3'         28.4553    23.2397    49.4567 H            1 SAH287   0.0000
    38 H12         29.8876    25.3180    48.1945 H            1 SAH287   0.0000
    39 H2'         27.2900    24.7879    50.4691 H            1 SAH287   0.0000
    40 H14         28.6471    26.9769    49.5217 H            1 SAH287   0.0000
    41 H1'         27.0861    26.4413    48.1886 H            1 SAH287   0.0000
    42 H16         24.9460    24.6641    50.6877 H            1 SAH287   0.0000
    43 H17         21.1798    29.4523    50.2432 H            1 SAH287   0.0000
    44 H18         21.4928    27.9675    51.0783 H            1 SAH287   0.0000
    45 H19         24.3941    29.8540    47.2252 H            1 SAH287   0.0000
    46 H20         28.3812    23.0811    42.2350 H            1 SAH287   0.0000
@<TRIPOS>BOND
     1    1    2       1
     2    2    3       1
     3    2    6       1
     4    3    4       1
     5    4    5       1
     6    5    9       1
     7    6    7      ar
     8    6    8      ar
     9    9   10       1
    10   10   11       1
    11   10   12       1
    12   11   16       1
    13   12   13       1
    14   12   14       1
    15   14   15       1
    16   14   16       1
    17   16   17       1
    18   17   18       1
    19   17   26       1
    20   18   19       2
    21   19   20       1
    22   20   21      ar
    23   20   26      ar
    24   21   22       1
    25   21   23      ar
    26   23   24      ar
    27   24   25      ar
    28   25   26      ar
    29    1   27       1
    30    1   28       1
    31    2   29       1
    32    3   30       1
    33    3   31       1
    34    4   32       1
    35    4   33       1
    36    1   46       1
    37    9   34       1
    38    9   35       1
    39   10   36       1
    40   12   37       1
    41   13   38       1
    42   14   39       1
    43   15   40       1
    44   16   41       1
    45   18   42       1
    46   22   43       1
    47   22   44       1
    48   24   45       1
@<TRIPOS>SUBSTRUCTURE
     1 SAH287      1 GROUP             4 A     SAH     0 **** SAH A 287
