@<TRIPOS>MOLECULE
1zpa_A83_1_ligand
   99   102     1     0     0
SMALL
NO_CHARGES


@<TRIPOS>ATOM
     1 C          -11.3110    15.0080    33.1070 C.2          1 A83200   0.0000
     2 O          -11.9100    16.0560    32.9280 O.2          1 A83200   0.0000
     3 N           -9.9930    14.9170    32.9080 N.am         1 A83200   0.0000
     4 C1          -9.1460    15.9350    32.2870 C.3          1 A83200   0.0000
     5 C2          -9.1490    15.7330    30.7820 C.2          1 A83200   0.0000
     6 C3         -10.0110    16.3390    29.9000 C.2          1 A83200   0.0000
     7 N1          -9.6790    15.9110    28.6510 N.pl3        1 A83200   0.0000
     8 N2          -8.6370    15.0360    28.8100 N.2          1 A83200   0.0000
     9 N3          -8.3210    14.9250    30.0560 N.2          1 A83200   0.0000
    10 C4         -10.2530    16.1940    27.3260 C.3          1 A83200   0.0000
    11 C5         -10.0740    17.7050    26.9270 C.3          1 A83200   0.0000
    12 C6          -9.6400    17.9140    25.4410 C.3          1 A83200   0.0000
    13 N4          -8.4720    17.1300    25.1160 N.3          1 A83200   0.0000
    14 C7          -7.1610    17.6470    25.4380 C.3          1 A83200   0.0000
    15 C8          -6.2770    16.7300    26.3240 C.3          1 A83200   0.0000
    16 C9          -4.8430    16.5550    25.7790 C.3          1 A83200   0.0000
    17 C10         -6.3080    17.1020    27.8300 C.3          1 A83200   0.0000
    18 S           -8.6280    15.7260    24.1070 S.o2         1 A83200   0.0000
    19 O1          -9.9520    15.1690    24.2520 O.2          1 A83200   0.0000
    20 O2          -7.6860    14.7010    24.4530 O.2          1 A83200   0.0000
    21 C11         -8.4070    16.1390    22.4360 C.ar         1 A83200   0.0000
    22 C12         -7.1640    15.9780    21.8390 C.ar         1 A83200   0.0000
    23 C13         -6.9810    16.3120    20.4880 C.ar         1 A83200   0.0000
    24 C14         -8.0520    16.8220    19.7800 C.ar         1 A83200   0.0000
    25 C15         -9.3060    16.9630    20.3690 C.ar         1 A83200   0.0000
    26 C16         -9.4810    16.6190    21.6980 C.ar         1 A83200   0.0000
    27 O3          -7.9040    17.1310    18.4830 O.3          1 A83200   0.0000
    28 C17         -6.7140    16.9930    17.7380 C.3          1 A83200   0.0000
    29 C18        -11.7160    15.6530    27.3280 C.3          1 A83200   0.0000
    30 O4         -11.2450    18.4740    27.1270 O.3          1 A83200   0.0000
    31 C19        -11.9790    14.2230    27.7210 C.ar         1 A83200   0.0000
    32 C20        -11.4590    13.1770    26.9470 C.ar         1 A83200   0.0000
    33 C21        -11.6970    11.8540    27.2910 C.ar         1 A83200   0.0000
    34 C22        -12.4440    11.5570    28.4270 C.ar         1 A83200   0.0000
    35 C23        -12.9610    12.5870    29.2060 C.ar         1 A83200   0.0000
    36 C24        -12.7470    13.9110    28.8420 C.ar         1 A83200   0.0000
    37 C25        -12.0760    13.8560    33.5520 C.ar         1 A83200   0.0000
    38 C26        -13.4580    13.9670    33.7050 C.ar         1 A83200   0.0000
    39 C27        -14.1920    12.8660    34.1330 C.ar         1 A83200   0.0000
    40 C28        -13.5560    11.6650    34.4070 C.ar         1 A83200   0.0000
    41 C29        -12.1750    11.5580    34.2540 C.ar         1 A83200   0.0000
    42 C30        -11.4410    12.6550    33.8100 C.ar         1 A83200   0.0000
    43 C31        -14.3300    10.4530    34.8700 C.3          1 A83200   0.0000
    44 N5         -15.6130    10.8580    35.4650 N.am         1 A83200   0.0000
    45 C45        -16.7270    10.1300    35.2070 C.2          1 A83200   0.0000
    46 O46        -17.3980     9.7170    36.1320 O.2          1 A83200   0.0000
    47 O47        -17.0870     9.8650    33.9500 O.3          1 A83200   0.0000
    48 C48        -16.5160    10.2600    32.7060 C.3          1 A83200   0.0000
    49 C49        -17.7600    10.4630    31.7580 C.3          1 A83200   0.0000
    50 C50        -15.7490    11.5930    32.8650 C.3          1 A83200   0.0000
    51 C51        -15.6110     9.1300    32.1570 C.3          1 A83200   0.0000
    52 H1          -9.5447    14.0762    33.2113 H            1 A83200   0.0000
    53 H2          -8.2120    15.8510    32.6343 H            1 A83200   0.0000
    54 H3          -9.5016    16.8442    32.5036 H            1 A83200   0.0000
    55 H4         -10.7458    16.9762    30.1324 H            1 A83200   0.0000
    56 H5          -9.7397    15.6514    26.6611 H            1 A83200   0.0000
    57 H6          -9.3568    18.0888    27.5087 H            1 A83200   0.0000
    58 H7          -9.4327    18.8815    25.2960 H            1 A83200   0.0000
    59 H8         -10.3921    17.6407    24.8413 H            1 A83200   0.0000
    60 H9          -7.2824    18.5152    25.9192 H            1 A83200   0.0000
    61 H10         -6.6741    17.8071    24.5793 H            1 A83200   0.0000
    62 H11         -6.6948    15.8233    26.2664 H            1 A83200   0.0000
    63 H12         -4.3248    15.9567    26.3902 H            1 A83200   0.0000
    64 H13         -4.8806    16.1475    24.8666 H            1 A83200   0.0000
    65 H14         -4.3948    17.4475    25.7273 H            1 A83200   0.0000
    66 H15         -5.7200    16.4746    28.3405 H            1 A83200   0.0000
    67 H16         -5.9786    18.0387    27.9488 H            1 A83200   0.0000
    68 H17         -7.2454    17.0325    28.1713 H            1 A83200   0.0000
    69 H18         -6.3967    15.6230    22.3731 H            1 A83200   0.0000
    70 H19         -6.0929    16.1833    20.0467 H            1 A83200   0.0000
    71 H20        -10.0761    17.3110    19.8344 H            1 A83200   0.0000
    72 H21        -10.3795    16.7159    22.1262 H            1 A83200   0.0000
    73 H22         -6.8729    17.2931    16.7974 H            1 A83200   0.0000
    74 H23         -5.9959    17.5538    18.1500 H            1 A83200   0.0000
    75 H24         -6.4297    16.0343    17.7385 H            1 A83200   0.0000
    76 H25        -12.0700    15.7691    26.4000 H            1 A83200   0.0000
    77 H26        -12.2376    16.2282    27.9581 H            1 A83200   0.0000
    78 H27        -11.0535    19.2102    27.7761 H            1 A83200   0.0000
    79 H28        -10.9102    13.3864    26.1377 H            1 A83200   0.0000
    80 H29        -11.3325    11.1155    26.7238 H            1 A83200   0.0000
    81 H30        -12.6089    10.6045    28.6829 H            1 A83200   0.0000
    82 H31        -13.4875    12.3744    30.0292 H            1 A83200   0.0000
    83 H32        -13.1473    14.6463    29.3889 H            1 A83200   0.0000
    84 H33        -13.9181    14.8328    33.5082 H            1 A83200   0.0000
    85 H34        -15.1830    12.9410    34.2436 H            1 A83200   0.0000
    86 H35        -11.7125    10.6962    34.4624 H            1 A83200   0.0000
    87 H36        -10.4531    12.5741    33.6775 H            1 A83200   0.0000
    88 H37        -13.7915     9.9598    35.5531 H            1 A83200   0.0000
    89 H38        -14.5042     9.8550    34.0876 H            1 A83200   0.0000
    90 H39        -15.6629    11.6638    36.0550 H            1 A83200   0.0000
    91 H40        -17.4458    10.7449    30.8515 H            1 A83200   0.0000
    92 H41        -18.2658     9.6036    31.6831 H            1 A83200   0.0000
    93 H42        -18.3572    11.1692    32.1383 H            1 A83200   0.0000
    94 H43        -15.3542    11.8574    31.9851 H            1 A83200   0.0000
    95 H44        -16.3789    12.3051    33.1752 H            1 A83200   0.0000
    96 H45        -15.0178    11.4787    33.5375 H            1 A83200   0.0000
    97 H46        -15.2144     9.4149    31.2844 H            1 A83200   0.0000
    98 H47        -14.8780     8.9426    32.8109 H            1 A83200   0.0000
    99 H48        -16.1561     8.3027    32.0211 H            1 A83200   0.0000
@<TRIPOS>BOND
     1    1    2       2
     2    1    3      am
     3    1   37       1
     4    3    4       1
     5    4    5       1
     6    5    6       2
     7    5    9       1
     8    6    7       1
     9    7    8       1
    10    7   10       1
    11    8    9       2
    12   10   11       1
    13   10   29       1
    14   11   12       1
    15   11   30       1
    16   12   13       1
    17   13   14       1
    18   13   18       1
    19   14   15       1
    20   15   16       1
    21   15   17       1
    22   18   19       2
    23   18   20       2
    24   18   21       1
    25   21   22      ar
    26   21   26      ar
    27   22   23      ar
    28   23   24      ar
    29   24   25      ar
    30   24   27       1
    31   25   26      ar
    32   27   28       1
    33   29   31       1
    34   31   32      ar
    35   31   36      ar
    36   32   33      ar
    37   33   34      ar
    38   34   35      ar
    39   35   36      ar
    40   37   38      ar
    41   37   42      ar
    42   38   39      ar
    43   39   40      ar
    44   40   41      ar
    45   40   43       1
    46   41   42      ar
    47   43   44       1
    48   44   45      am
    49   45   46       2
    50   45   47       1
    51   47   48       1
    52   48   49       1
    53   48   50       1
    54   48   51       1
    55    3   52       1
    56    4   53       1
    57    4   54       1
    58    6   55       1
    59   10   56       1
    60   11   57       1
    61   12   58       1
    62   12   59       1
    63   14   60       1
    64   14   61       1
    65   15   62       1
    66   16   63       1
    67   16   64       1
    68   16   65       1
    69   17   66       1
    70   17   67       1
    71   17   68       1
    72   22   69       1
    73   23   70       1
    74   25   71       1
    75   26   72       1
    76   28   73       1
    77   28   74       1
    78   28   75       1
    79   29   76       1
    80   29   77       1
    81   30   78       1
    82   32   79       1
    83   33   80       1
    84   34   81       1
    85   35   82       1
    86   36   83       1
    87   38   84       1
    88   39   85       1
    89   41   86       1
    90   42   87       1
    91   43   88       1
    92   43   89       1
    93   44   90       1
    94   49   91       1
    95   49   92       1
    96   49   93       1
    97   50   94       1
    98   50   95       1
    99   50   96       1
   100   51   97       1
   101   51   98       1
   102   51   99       1
@<TRIPOS>SUBSTRUCTURE
     1 A83200      1 GROUP             4 A     A83     0 **** A83 A 200
