@<TRIPOS>MOLECULE
3uow_XMP_2_ligand
   35    37     1     0     0
SMALL
NO_CHARGES


@<TRIPOS>ATOM
     1 P          -10.0240    35.2550    40.5500 P.3          1 XMP556   0.0000
     2 O1P        -10.9740    36.3070    41.0750 O.co2        1 XMP556   0.0000
     3 O2P         -8.7610    35.8150    39.9470 O.co2        1 XMP556  -1.0000
     4 O5'         -9.5210    34.4680    41.8600 O.3          1 XMP556   0.0000
     5 O3P        -10.6870    34.1820    39.7240 O.co2        1 XMP556  -1.0000
     6 C5'         -8.2360    34.7080    42.4470 C.3          1 XMP556   0.0000
     7 C4'         -7.8590    33.5620    43.3830 C.3          1 XMP556   0.0000
     8 O4'         -8.9300    33.3200    44.3040 O.3          1 XMP556   0.0000
     9 C1'         -9.3970    31.9690    44.1860 C.3          1 XMP556   0.0000
    10 N9         -10.8720    31.9600    44.2890 N.pl3        1 XMP556   0.0000
    11 C4         -11.5500    31.4630    45.3190 C.2          1 XMP556   0.0000
    12 N3         -11.2030    30.8640    46.4680 N.pl3        1 XMP556   0.0000
    13 N1         -13.4650    30.6060    47.1300 N.pl3        1 XMP556   0.0000
    14 C2         -12.1360    30.4450    47.3520 C.2          1 XMP556   0.0000
    15 O2         -11.7580    29.8890    48.4100 O.2          1 XMP556   0.0000
    16 C6         -13.9410    31.1930    46.0150 C.2          1 XMP556   0.0000
    17 O6         -15.1670    31.3310    45.8260 O.2          1 XMP556   0.0000
    18 C5         -12.9680    31.6690    45.0140 C.2          1 XMP556   0.0000
    19 N7         -13.0330    32.2770    43.8280 N.2          1 XMP556   0.0000
    20 C8         -11.7570    32.4570    43.3920 C.2          1 XMP556   0.0000
    21 C2'         -8.8880    31.4550    42.8490 C.3          1 XMP556   0.0000
    22 O2'         -8.6180    30.0560    42.8700 O.3          1 XMP556   0.0000
    23 C3'         -7.6260    32.2570    42.6370 C.3          1 XMP556   0.0000
    24 O3'         -6.5290    31.5680    43.2330 O.3          1 XMP556   0.0000
    25 H5'1        -8.2648    35.5622    42.9662 H            1 XMP556   0.0000
    26 H5'2        -7.5507    34.7812    41.7224 H            1 XMP556   0.0000
    27 H4'         -7.0330    33.8062    43.8910 H            1 XMP556   0.0000
    28 H1'         -9.0087    31.4172    44.9241 H            1 XMP556   0.0000
    29 H5         -10.2346    30.7246    46.6748 H            1 XMP556   0.0000
    30 H6         -14.1129    30.2778    47.8174 H            1 XMP556   0.0000
    31 H7         -11.5070    32.8955    42.5288 H            1 XMP556   0.0000
    32 H2'         -9.5498    31.6638    42.1290 H            1 XMP556   0.0000
    33 H9          -9.1884    29.5962    42.1894 H            1 XMP556   0.0000
    34 H3'         -7.4627    32.4219    41.6643 H            1 XMP556   0.0000
    35 H11         -6.0607    31.0225    42.5379 H            1 XMP556   0.0000
@<TRIPOS>BOND
     1    1    2      ar
     2    1    3      ar
     3    1    4       1
     4    1    5      ar
     5    4    6       1
     6    6    7       1
     7    7    8       1
     8    7   23       1
     9    8    9       1
    10    9   10       1
    11    9   21       1
    12   10   11       1
    13   10   20       1
    14   11   12       1
    15   11   18       2
    16   12   14       1
    17   13   14       1
    18   13   16       1
    19   14   15       2
    20   16   17       2
    21   16   18       1
    22   18   19       1
    23   19   20       2
    24   21   22       1
    25   21   23       1
    26   23   24       1
    27   24   35       1
    28   23   34       1
    29    6   25       1
    30    6   26       1
    31    7   27       1
    32    9   28       1
    33   12   29       1
    34   13   30       1
    35   20   31       1
    36   21   32       1
    37   22   33       1
@<TRIPOS>SUBSTRUCTURE
     1 XMP556      1 GROUP             4 B     XMP     0 **** XMP B 556
