@<TRIPOS>MOLECULE
3qp6_HL6_1_ligand
   31    31     1     0     0
SMALL
NO_CHARGES


@<TRIPOS>ATOM
     1 N           16.0320     4.4270    52.4210 N.am         1 HL6266   0.0000
     2 C1          15.6490     4.1500    54.8350 C.2          1 HL6266   0.0000
     3 O1          14.7370     4.9600    54.9640 O.2          1 HL6266   0.0000
     4 C2          17.5000     2.8200    55.4330 C.3          1 HL6266   0.0000
     5 O2          16.4940     3.7150    55.9270 O.3          1 HL6266   0.0000
     6 C3          17.4870     3.0170    53.8980 C.3          1 HL6266   0.0000
     7 O3          14.1290     3.4930    51.6140 O.2          1 HL6266   0.0000
     8 C4          16.0780     3.5160    53.5470 C.3          1 HL6266   0.0000
     9 C5          15.0130     4.3520    51.5560 C.2          1 HL6266   0.0000
    10 C6          15.0030     5.3810    50.4520 C.3          1 HL6266   0.0000
    11 C7          13.7130     6.2100    50.5400 C.3          1 HL6266   0.0000
    12 C8          13.4570     6.7390    51.9560 C.3          1 HL6266   0.0000
    13 C9          12.4370     7.8810    51.9690 C.3          1 HL6266   0.0000
    14 C10         12.1550     8.3660    53.3800 C.3          1 HL6266   0.0000
    15 H1          16.7550     5.1056    52.2913 H            1 HL6266   0.0000
    16 H2          17.2762     1.8742    55.6685 H            1 HL6266   0.0000
    17 H3          18.3959     3.0544    55.8105 H            1 HL6266   0.0000
    18 H4          17.6741     2.1506    53.4350 H            1 HL6266   0.0000
    19 H5          18.1723     3.6937    53.6288 H            1 HL6266   0.0000
    20 H6          15.4899     2.7299    53.3568 H            1 HL6266   0.0000
    21 H7          15.0436     4.9199    49.5656 H            1 HL6266   0.0000
    22 H8          15.7946     5.9840    50.5506 H            1 HL6266   0.0000
    23 H9          12.9418     5.6348    50.2673 H            1 HL6266   0.0000
    24 H10         13.7868     6.9870    49.9148 H            1 HL6266   0.0000
    25 H11         14.3195     7.0728    52.3363 H            1 HL6266   0.0000
    26 H12         13.1106     5.9909    52.5219 H            1 HL6266   0.0000
    27 H13         11.5833     7.5577    51.5607 H            1 HL6266   0.0000
    28 H14         12.7966     8.6429    51.4302 H            1 HL6266   0.0000
    29 H15         11.4868     9.1094    53.3497 H            1 HL6266   0.0000
    30 H16         11.7896     7.6114    53.9251 H            1 HL6266   0.0000
    31 H17         13.0029     8.6966    53.7945 H            1 HL6266   0.0000
@<TRIPOS>BOND
     1    1    8       1
     2    1    9      am
     3    2    3       2
     4    2    5       1
     5    2    8       1
     6    4    5       1
     7    4    6       1
     8    6    8       1
     9    7    9       2
    10    9   10       1
    11   10   11       1
    12   11   12       1
    13   12   13       1
    14   13   14       1
    15    1   15       1
    16    4   16       1
    17    4   17       1
    18    6   18       1
    19    6   19       1
    20    8   20       1
    21   10   21       1
    22   10   22       1
    23   11   23       1
    24   11   24       1
    25   12   25       1
    26   12   26       1
    27   13   27       1
    28   13   28       1
    29   14   29       1
    30   14   30       1
    31   14   31       1
@<TRIPOS>SUBSTRUCTURE
     1 HL6266      1 GROUP             4 A     HL6     0 **** HL6 A 266
