@<TRIPOS>MOLECULE
4cof_BEN_1_ligand
   18    18     1     0     0
SMALL
NO_CHARGES


@<TRIPOS>ATOM
     1 C1         -20.5580   -19.5740   127.9940 C.ar         1 BEN500   0.0000
     2 C2         -20.0820   -20.3160   129.1420 C.ar         1 BEN500   0.0000
     3 C3         -20.6810   -20.1420   130.4120 C.ar         1 BEN500   0.0000
     4 C4         -21.7690   -19.2390   130.5750 C.ar         1 BEN500   0.0000
     5 C5         -22.2600   -18.4910   129.4720 C.ar         1 BEN500   0.0000
     6 C6         -21.6710   -18.6520   128.1850 C.ar         1 BEN500   0.0000
     7 C          -19.9040   -19.7260   126.6410 C.cat        1 BEN500   0.0000
     8 N1         -20.3570   -19.0090   125.6700 N.pl3        1 BEN500   1.0000
     9 N2         -18.8470   -20.5860   126.3850 N.pl3        1 BEN500   0.0000
    10 H1         -19.3224   -20.9578   129.0365 H            1 BEN500   0.0000
    11 H2         -20.3384   -20.6558   131.1986 H            1 BEN500   0.0000
    12 H3         -22.1917   -19.1302   131.4747 H            1 BEN500   0.0000
    13 H4         -23.0186   -17.8518   129.5988 H            1 BEN500   0.0000
    14 H5         -22.0229   -18.1297   127.4082 H            1 BEN500   0.0000
    15 H6         -19.9482   -19.0835   124.7604 H            1 BEN500   0.0000
    16 H7         -21.1171   -18.3783   125.8264 H            1 BEN500   0.0000
    17 H8         -18.4578   -20.6400   125.4654 H            1 BEN500   0.0000
    18 H9         -18.4738   -21.1522   127.1199 H            1 BEN500   0.0000
@<TRIPOS>BOND
     1    1    2      ar
     2    1    6      ar
     3    1    7       1
     4    2    3      ar
     5    3    4      ar
     6    4    5      ar
     7    5    6      ar
     8    7    8      ar
     9    7    9      ar
    10    2   10       1
    11    3   11       1
    12    4   12       1
    13    5   13       1
    14    6   14       1
    15    8   15       1
    16    8   16       1
    17    9   17       1
    18    9   18       1
@<TRIPOS>SUBSTRUCTURE
     1 BEN500      1 GROUP             4 A     BEN     0 **** BEN A 500
