@<TRIPOS>MOLECULE
2j8z_NAP_1_ligand
   73    77     1     0     0
SMALL
NO_CHARGES


@<TRIPOS>ATOM
     1 PA          24.6780    27.6020   -23.5060 P.3          1 NAP1334   0.0000
     2 O1A         25.4550    28.8510   -23.5650 O.co2        1 NAP1334   0.0000
     3 O2A         24.7610    26.6040   -24.6150 O.co2        1 NAP1334  -1.0000
     4 O5B         23.2110    28.0490   -23.0950 O.3          1 NAP1334   0.0000
     5 C5B         23.0980    28.9910   -21.9980 C.3          1 NAP1334   0.0000
     6 C4B         21.8060    29.7950   -22.0220 C.3          1 NAP1334   0.0000
     7 O4B         21.7630    30.5460   -20.7970 O.3          1 NAP1334   0.0000
     8 C3B         21.7740    30.9190   -23.0550 C.3          1 NAP1334   0.0000
     9 O3B         21.4800    30.3870   -24.3650 O.3          1 NAP1334   0.0000
    10 C2B         20.6150    31.7600   -22.4870 C.3          1 NAP1334   0.0000
    11 O2B         19.3630    31.2670   -23.0020 O.3          1 NAP1334   0.0000
    12 C1B         20.6930    31.5070   -20.9610 C.3          1 NAP1334   0.0000
    13 N9A         21.0550    32.7320   -20.1630 N.pl3        1 NAP1334   0.0000
    14 C8A         22.1720    33.4480   -20.3100 C.2          1 NAP1334   0.0000
    15 N7A         22.1820    34.4630   -19.4420 N.2          1 NAP1334   0.0000
    16 C5A         21.0600    34.4020   -18.7300 C.ar         1 NAP1334   0.0000
    17 C6A         20.5420    35.1860   -17.7010 C.ar         1 NAP1334   0.0000
    18 N6A         21.2150    36.2470   -17.2500 N.pl3        1 NAP1334   0.0000
    19 N1A         19.3460    34.8570   -17.1780 N.ar         1 NAP1334   0.0000
    20 C2A         18.6870    33.7920   -17.6390 C.ar         1 NAP1334   0.0000
    21 N3A         19.1500    33.0130   -18.6170 N.ar         1 NAP1334   0.0000
    22 C4A         20.3390    33.2990   -19.1840 C.ar         1 NAP1334   0.0000
    23 O3          25.0220    26.9070   -22.1130 O.3          1 NAP1334   0.0000
    24 PN          25.8990    25.6080   -21.8350 P.3          1 NAP1334   0.0000
    25 O1N         27.2490    25.8130   -22.3890 O.co2        1 NAP1334   0.0000
    26 O2N         25.1410    24.3720   -22.1820 O.co2        1 NAP1334  -1.0000
    27 O5D         25.9120    25.8250   -20.2250 O.3          1 NAP1334   0.0000
    28 C5D         24.7910    26.4350   -19.5540 C.3          1 NAP1334   0.0000
    29 C4D         25.1290    26.9170   -18.1360 C.3          1 NAP1334   0.0000
    30 O4D         25.6680    25.7710   -17.4320 O.3          1 NAP1334   0.0000
    31 C3D         26.2170    27.9920   -18.0840 C.3          1 NAP1334   0.0000
    32 O3D         26.0210    28.7700   -16.9060 O.3          1 NAP1334   0.0000
    33 C2D         27.5030    27.1910   -17.9370 C.3          1 NAP1334   0.0000
    34 O2D         28.4760    28.0020   -17.2880 O.3          1 NAP1334   0.0000
    35 C1D         27.0330    26.0820   -17.0030 C.3          1 NAP1334   0.0000
    36 N1N         27.8040    24.8040   -16.9690 N.ar         1 NAP1334   1.0000
    37 C2N         28.2540    24.3800   -15.7330 C.ar         1 NAP1334   0.0000
    38 C3N         28.9710    23.2080   -15.5430 C.ar         1 NAP1334   0.0000
    39 C7N         29.4270    22.8350   -14.1260 C.2          1 NAP1334   0.0000
    40 O7N         29.6540    23.6997   -13.2836 O.2          1 NAP1334   0.0000
    41 N7N         29.5340    21.5253   -13.8899 N.am         1 NAP1334   0.0000
    42 C4N         29.2470    22.4170   -16.6500 C.ar         1 NAP1334   0.0000
    43 C5N         28.7990    22.8280   -17.9120 C.ar         1 NAP1334   0.0000
    44 C6N         28.0750    24.0130   -18.0880 C.ar         1 NAP1334   0.0000
    45 P2B         17.9460    31.9330   -22.6270 P.3          1 NAP1334   0.0000
    46 O1X         17.1350    32.1250   -23.9950 O.co2        1 NAP1334   0.0000
    47 O2X         17.1910    30.7400   -21.8610 O.co2        1 NAP1334  -1.0000
    48 O3X         18.1140    33.2260   -21.9280 O.co2        1 NAP1334  -1.0000
    49 H5B1        23.8681    29.6271   -22.0459 H            1 NAP1334   0.0000
    50 H5B2        23.1388    28.4824   -21.1380 H            1 NAP1334   0.0000
    51 H4B         21.0085    29.1981   -22.1101 H            1 NAP1334   0.0000
    52 H3B         22.6305    31.4352   -23.0566 H            1 NAP1334   0.0000
    53 H5          21.8298    29.4525   -24.4315 H            1 NAP1334   0.0000
    54 H2B         20.7354    32.7299   -22.6986 H            1 NAP1334   0.0000
    55 H1B         19.8309    31.1227   -20.6307 H            1 NAP1334   0.0000
    56 H8A         22.8951    33.2530   -20.9727 H            1 NAP1334   0.0000
    57 H6A1        20.8347    36.8033   -16.5111 H            1 NAP1334   0.0000
    58 H6A2        22.0995    36.4855   -17.6510 H            1 NAP1334   0.0000
    59 H2A         17.8023    33.5671   -17.2308 H            1 NAP1334   0.0000
    60 H5D1        24.0519    25.7641   -19.4946 H            1 NAP1334   0.0000
    61 H5D2        24.4860    27.2201   -20.0930 H            1 NAP1334   0.0000
    62 H4D         24.3020    27.2432   -17.6781 H            1 NAP1334   0.0000
    63 H3D         26.2221    28.5580   -18.9084 H            1 NAP1334   0.0000
    64 H16         26.7239    29.4794   -16.8542 H            1 NAP1334   0.0000
    65 H2D         27.8297    26.8354   -18.8127 H            1 NAP1334   0.0000
    66 H18         29.3261    27.4854   -17.1859 H            1 NAP1334   0.0000
    67 H1D         26.9939    26.4497   -16.0739 H            1 NAP1334   0.0000
    68 H2N         28.0523    24.9474   -14.9346 H            1 NAP1334   0.0000
    69 H7N1        29.7994    21.2010   -12.9820 H            1 NAP1334   0.0000
    70 H7N2        29.3488    20.8687   -14.6210 H            1 NAP1334   0.0000
    71 H4N         29.7593    21.5643   -16.5477 H            1 NAP1334   0.0000
    72 H5N         29.0020    22.2592   -18.7091 H            1 NAP1334   0.0000
    73 H6N         27.7584    24.2876   -18.9959 H            1 NAP1334   0.0000
@<TRIPOS>BOND
     1    1    2      ar
     2    1    3      ar
     3    1    4       1
     4    1   23       1
     5    4    5       1
     6    5    6       1
     7    6    7       1
     8    6    8       1
     9    7   12       1
    10    8    9       1
    11    8   10       1
    12   10   11       1
    13   10   12       1
    14   11   45       1
    15   12   13       1
    16   13   14       1
    17   13   22       1
    18   14   15       2
    19   15   16       1
    20   16   17      ar
    21   16   22      ar
    22   17   18       1
    23   17   19      ar
    24   19   20      ar
    25   20   21      ar
    26   21   22      ar
    27   23   24       1
    28   24   25      ar
    29   24   26      ar
    30   24   27       1
    31   27   28       1
    32   28   29       1
    33   29   30       1
    34   29   31       1
    35   30   35       1
    36   31   32       1
    37   31   33       1
    38   33   34       1
    39   33   35       1
    40   35   36       1
    41   36   37      ar
    42   36   44      ar
    43   37   38      ar
    44   38   39       1
    45   38   42      ar
    46   39   40       2
    47   39   41      am
    48   42   43      ar
    49   43   44      ar
    50   45   46      ar
    51   45   47      ar
    52   45   48      ar
    53   43   72       1
    54    5   49       1
    55    5   50       1
    56    6   51       1
    57    8   52       1
    58    9   53       1
    59   10   54       1
    60   12   55       1
    61   14   56       1
    62   18   57       1
    63   18   58       1
    64   20   59       1
    65   44   73       1
    66   28   60       1
    67   28   61       1
    68   29   62       1
    69   31   63       1
    70   32   64       1
    71   33   65       1
    72   34   66       1
    73   35   67       1
    74   37   68       1
    75   41   69       1
    76   41   70       1
    77   42   71       1
@<TRIPOS>SUBSTRUCTURE
     1 NAP1334     1 GROUP             4 A     NAP     0 **** NAP A1334
