@<TRIPOS>MOLECULE
4kqw_NAP_1_ligand
   73    77     1     0     0
SMALL
NO_CHARGES


@<TRIPOS>ATOM
     1 PA         -12.8750     0.3630   -16.1150 P.3          1 NAP401   0.0000
     2 O1A        -13.8710    -0.7290   -15.8750 O.co2        1 NAP401   0.0000
     3 O2A        -12.2230     0.4340   -17.4810 O.co2        1 NAP401  -1.0000
     4 O5B        -13.3910     1.8280   -15.7380 O.3          1 NAP401   0.0000
     5 C5B        -14.6680     2.1920   -16.2900 C.3          1 NAP401   0.0000
     6 C4B        -15.0270     3.4660   -15.4600 C.3          1 NAP401   0.0000
     7 O4B        -14.2330     4.6390   -15.7490 O.3          1 NAP401   0.0000
     8 C3B        -16.4240     3.7640   -15.8860 C.3          1 NAP401   0.0000
     9 O3B        -17.1930     4.2520   -14.7470 O.3          1 NAP401   0.0000
    10 C2B        -16.2190     4.9630   -16.8180 C.3          1 NAP401   0.0000
    11 O2B        -17.2970     5.9170   -16.8780 O.3          1 NAP401   0.0000
    12 C1B        -15.0860     5.7390   -16.1620 C.3          1 NAP401   0.0000
    13 N9A        -14.3350     6.4120   -17.2100 N.pl3        1 NAP401   0.0000
    14 C8A        -13.8840     5.9370   -18.3590 C.2          1 NAP401   0.0000
    15 N7A        -13.2190     6.8380   -19.1040 N.2          1 NAP401   0.0000
    16 C5A        -13.3270     7.9820   -18.4210 C.ar         1 NAP401   0.0000
    17 C6A        -12.9740     9.4710   -18.5860 C.ar         1 NAP401   0.0000
    18 N6A        -12.3050     9.8990   -19.6990 N.pl3        1 NAP401   0.0000
    19 N1A        -13.3240    10.2010   -17.5820 N.ar         1 NAP401   0.0000
    20 C2A        -14.0010     9.9310   -16.4230 C.ar         1 NAP401   0.0000
    21 N3A        -14.3300     8.6020   -16.2110 N.ar         1 NAP401   0.0000
    22 C4A        -14.0430     7.7720   -17.1470 C.ar         1 NAP401   0.0000
    23 O3         -11.7370     0.3010   -15.0420 O.3          1 NAP401   0.0000
    24 PN         -11.2260    -1.0020   -14.2540 P.3          1 NAP401   0.0000
    25 O1N        -12.2080    -1.2990   -13.2220 O.co2        1 NAP401   0.0000
    26 O2N        -10.8080    -2.0860   -15.2460 O.co2        1 NAP401  -1.0000
    27 O5D         -9.9070    -0.4860   -13.6300 O.3          1 NAP401   0.0000
    28 C5D         -9.8280     0.5520   -12.5950 C.3          1 NAP401   0.0000
    29 C4D         -8.6350     0.2590   -11.7690 C.3          1 NAP401   0.0000
    30 O4D         -8.6280    -1.0210   -11.0970 O.3          1 NAP401   0.0000
    31 C3D         -7.3220     0.3830   -12.5830 C.3          1 NAP401   0.0000
    32 O3D         -6.3000     0.9570   -11.7230 O.3          1 NAP401   0.0000
    33 C2D         -7.0340    -1.1290   -12.7600 C.3          1 NAP401   0.0000
    34 O2D         -5.6130    -1.4340   -13.0090 O.3          1 NAP401   0.0000
    35 C1D         -7.3540    -1.7000   -11.4400 C.3          1 NAP401   0.0000
    36 N1N         -7.6730    -3.1060   -11.4910 N.ar         1 NAP401   1.0000
    37 C2N         -8.5720    -3.6510   -12.3660 C.ar         1 NAP401   0.0000
    38 C3N         -8.9140    -4.9390   -12.3270 C.ar         1 NAP401   0.0000
    39 C7N        -10.0270    -5.3990   -13.1310 C.2          1 NAP401   0.0000
    40 O7N        -10.5930    -6.4530   -12.7500 O.2          1 NAP401   0.0000
    41 N7N        -10.5740    -4.7810   -14.1430 N.am         1 NAP401   0.0000
    42 C4N         -8.3010    -5.8220   -11.3730 C.ar         1 NAP401   0.0000
    43 C5N         -7.6240    -5.1960   -10.3040 C.ar         1 NAP401   0.0000
    44 C6N         -7.2770    -3.8700   -10.3940 C.ar         1 NAP401   0.0000
    45 P2B        -18.8500     5.5670   -17.3400 P.3          1 NAP401   0.0000
    46 O1X        -19.4940     6.9280   -17.3530 O.co2        1 NAP401   0.0000
    47 O2X        -19.3970     4.6530   -16.3290 O.co2        1 NAP401  -1.0000
    48 O3X        -18.7940     4.9920   -18.7810 O.co2        1 NAP401  -1.0000
    49 H5B1       -15.3431     1.4670   -16.1537 H            1 NAP401   0.0000
    50 H5B2       -14.5962     2.4016   -17.2652 H            1 NAP401   0.0000
    51 H4B        -14.9993     3.2613   -14.4816 H            1 NAP401   0.0000
    52 H3B        -16.8613     2.9898   -16.3437 H            1 NAP401   0.0000
    53 H5         -18.1291     4.4505   -15.0373 H            1 NAP401   0.0000
    54 H2B        -15.9594     4.6608   -17.7352 H            1 NAP401   0.0000
    55 H1B        -15.3760     6.3373   -15.4150 H            1 NAP401   0.0000
    56 H8A        -14.0251     4.9903   -18.6487 H            1 NAP401   0.0000
    57 H6A1       -12.0768    10.8670   -19.8039 H            1 NAP401   0.0000
    58 H6A2       -12.0439     9.2441   -20.4082 H            1 NAP401   0.0000
    59 H2A        -14.2430    10.6486   -15.7700 H            1 NAP401   0.0000
    60 H5D1       -10.6508     0.5325   -12.0270 H            1 NAP401   0.0000
    61 H5D2        -9.7375     1.4528   -13.0197 H            1 NAP401   0.0000
    62 H4D         -8.5992     0.9591   -11.0559 H            1 NAP401   0.0000
    63 H3D         -7.4345     0.8711   -13.4485 H            1 NAP401   0.0000
    64 H16         -5.4448     1.0439   -12.2339 H            1 NAP401   0.0000
    65 H2D         -7.6153    -1.5236   -13.4716 H            1 NAP401   0.0000
    66 H18         -5.3147    -0.9734   -13.8450 H            1 NAP401   0.0000
    67 H1D         -6.6383    -1.5063   -10.7689 H            1 NAP401   0.0000
    68 H2N         -8.9875    -3.0625   -13.0596 H            1 NAP401   0.0000
    69 H7N1       -11.3436    -5.1978   -14.6268 H            1 NAP401   0.0000
    70 H7N2       -10.2233    -3.8909   -14.4342 H            1 NAP401   0.0000
    71 H4N         -8.3509    -6.8169   -11.4609 H            1 NAP401   0.0000
    72 H5N         -7.3972    -5.7177    -9.4816 H            1 NAP401   0.0000
    73 H6N         -6.7356    -3.4489    -9.6663 H            1 NAP401   0.0000
@<TRIPOS>BOND
     1    1    2      ar
     2    1    3      ar
     3    1    4       1
     4    1   23       1
     5    4    5       1
     6    5    6       1
     7    6    7       1
     8    6    8       1
     9    7   12       1
    10    8    9       1
    11    8   10       1
    12   10   11       1
    13   10   12       1
    14   11   45       1
    15   12   13       1
    16   13   14       1
    17   13   22       1
    18   14   15       2
    19   15   16       1
    20   16   17      ar
    21   16   22      ar
    22   17   18       1
    23   17   19      ar
    24   19   20      ar
    25   20   21      ar
    26   21   22      ar
    27   23   24       1
    28   24   25      ar
    29   24   26      ar
    30   24   27       1
    31   27   28       1
    32   28   29       1
    33   29   30       1
    34   29   31       1
    35   30   35       1
    36   31   32       1
    37   31   33       1
    38   33   34       1
    39   33   35       1
    40   35   36       1
    41   36   37      ar
    42   36   44      ar
    43   37   38      ar
    44   38   39       1
    45   38   42      ar
    46   39   40       2
    47   39   41      am
    48   42   43      ar
    49   43   44      ar
    50   45   46      ar
    51   45   47      ar
    52   45   48      ar
    53   43   72       1
    54    5   49       1
    55    5   50       1
    56    6   51       1
    57    8   52       1
    58    9   53       1
    59   10   54       1
    60   12   55       1
    61   14   56       1
    62   18   57       1
    63   18   58       1
    64   20   59       1
    65   44   73       1
    66   28   60       1
    67   28   61       1
    68   29   62       1
    69   31   63       1
    70   32   64       1
    71   33   65       1
    72   34   66       1
    73   35   67       1
    74   37   68       1
    75   41   69       1
    76   41   70       1
    77   42   71       1
@<TRIPOS>SUBSTRUCTURE
     1 NAP401      1 GROUP             4 A     NAP     0 **** NAP A 401
