@<TRIPOS>MOLECULE
3efv_NAD_3_ligand
   70    74     1     0     0
SMALL
NO_CHARGES


@<TRIPOS>ATOM
     1 PA          79.4470    59.2160    55.0230 P.3          1 NAD463   0.0000
     2 O1A         78.0740    58.7340    55.2470 O.co2        1 NAD463   0.0000
     3 O2A         80.2710    58.1450    54.4430 O.co2        1 NAD463  -1.0000
     4 O5B         80.1090    59.6540    56.4170 O.3          1 NAD463   0.0000
     5 C5B         79.5160    60.5490    57.3410 C.3          1 NAD463   0.0000
     6 C4B         79.9780    60.1320    58.7390 C.3          1 NAD463   0.0000
     7 O4B         79.4140    58.8590    59.0530 O.3          1 NAD463   0.0000
     8 C3B         81.4900    59.9500    58.8770 C.3          1 NAD463   0.0000
     9 O3B         81.8810    60.4020    60.1680 O.3          1 NAD463   0.0000
    10 C2B         81.6840    58.4450    58.7490 C.3          1 NAD463   0.0000
    11 O2B         82.8590    57.9860    59.3800 O.3          1 NAD463   0.0000
    12 C1B         80.4290    57.9610    59.4660 C.3          1 NAD463   0.0000
    13 N9A         79.9310    56.6080    59.1880 N.pl3        1 NAD463   0.0000
    14 C8A         79.5560    56.0700    57.9790 C.2          1 NAD463   0.0000
    15 N7A         79.1140    54.8020    58.1810 N.2          1 NAD463   0.0000
    16 C5A         79.1860    54.5360    59.5120 C.ar         1 NAD463   0.0000
    17 C6A         78.8660    53.4110    60.2590 C.ar         1 NAD463   0.0000
    18 N6A         78.2640    52.3600    59.6880 N.pl3        1 NAD463   0.0000
    19 N1A         79.0740    53.4530    61.6260 N.ar         1 NAD463   0.0000
    20 C2A         79.5810    54.5900    62.2490 C.ar         1 NAD463   0.0000
    21 N3A         79.9020    55.7180    61.5030 N.ar         1 NAD463   0.0000
    22 C4A         79.6920    55.6760    60.1590 C.ar         1 NAD463   0.0000
    23 O3          79.3060    60.5940    54.1610 O.3          1 NAD463   0.0000
    24 PN          80.4930    61.6150    53.7080 P.3          1 NAD463   0.0000
    25 O1N         81.1670    61.0110    52.4970 O.co2        1 NAD463   0.0000
    26 O2N         81.3340    61.9750    54.9010 O.co2        1 NAD463  -1.0000
    27 O5D         79.6660    62.9300    53.2260 O.3          1 NAD463   0.0000
    28 C5D         78.8900    62.9230    52.0420 C.3          1 NAD463   0.0000
    29 C4D         77.3870    62.8630    52.3350 C.3          1 NAD463   0.0000
    30 O4D         77.0130    63.7840    53.3550 O.3          1 NAD463   0.0000
    31 C3D         76.5570    63.2350    51.1110 C.3          1 NAD463   0.0000
    32 O3D         75.5770    62.2690    50.8300 O.3          1 NAD463   0.0000
    33 C2D         75.8840    64.5380    51.5180 C.3          1 NAD463   0.0000
    34 O2D         74.6630    64.8120    50.8670 O.3          1 NAD463   0.0000
    35 C1D         75.7480    64.3430    53.0150 C.3          1 NAD463   0.0000
    36 N1N         75.4580    65.6430    53.6420 N.ar         1 NAD463   1.0000
    37 C2N         74.2140    65.8690    54.1800 C.ar         1 NAD463   0.0000
    38 C3N         73.9430    67.1130    54.7600 C.ar         1 NAD463   0.0000
    39 C7N         72.5720    67.5080    55.2120 C.2          1 NAD463   0.0000
    40 O7N         72.3103    68.5669    56.1218 O.2          1 NAD463   0.0000
    41 N7N         71.6000    66.7959    54.6830 N.am         1 NAD463   0.0000
    42 C4N         74.9350    68.0980    54.7940 C.ar         1 NAD463   0.0000
    43 C5N         76.1870    67.8490    54.2350 C.ar         1 NAD463   0.0000
    44 C6N         76.4450    66.6030    53.6700 C.ar         1 NAD463   0.0000
    45 H5B1        78.5194    60.4940    57.2793 H            1 NAD463   0.0000
    46 H5B2        79.8107    61.4849    57.1482 H            1 NAD463   0.0000
    47 H4B         79.6636    60.8070    59.4065 H            1 NAD463   0.0000
    48 H3B         81.9810    60.4409    58.1574 H            1 NAD463   0.0000
    49 H5          81.6421    61.3677    60.2696 H            1 NAD463   0.0000
    50 H2B         81.6693    58.1685    57.7881 H            1 NAD463   0.0000
    51 H7          82.9343    56.9956    59.2643 H            1 NAD463   0.0000
    52 H1B         80.5636    58.0584    60.4521 H            1 NAD463   0.0000
    53 H8A         79.6014    56.5364    57.0956 H            1 NAD463   0.0000
    54 H6A1        78.0381    51.5546    60.2360 H            1 NAD463   0.0000
    55 H6A2        78.0403    52.3805    58.7135 H            1 NAD463   0.0000
    56 H2A         79.7152    54.5952    63.2399 H            1 NAD463   0.0000
    57 H5D1        79.1436    62.1249    51.4955 H            1 NAD463   0.0000
    58 H5D2        79.0842    63.7565    51.5248 H            1 NAD463   0.0000
    59 H4D         77.1463    61.9368    52.6252 H            1 NAD463   0.0000
    60 H3D         77.1473    63.3778    50.3166 H            1 NAD463   0.0000
    61 H17         75.3995    62.2507    49.8460 H            1 NAD463   0.0000
    62 H2D         76.5163    65.2938    51.3479 H            1 NAD463   0.0000
    63 H19         74.6739    64.4058    49.9533 H            1 NAD463   0.0000
    64 H1D         75.0163    63.6912    53.2144 H            1 NAD463   0.0000
    65 H2N         73.5135    65.1557    54.1573 H            1 NAD463   0.0000
    66 H7N1        70.6483    67.0013    54.9114 H            1 NAD463   0.0000
    67 H7N2        71.8131    66.0493    54.0528 H            1 NAD463   0.0000
    68 H4N         74.7456    68.9826    55.2202 H            1 NAD463   0.0000
    69 H5N         76.8925    68.5577    54.2396 H            1 NAD463   0.0000
    70 H6N         77.3464    66.4053    53.2848 H            1 NAD463   0.0000
@<TRIPOS>BOND
     1    1    2      ar
     2    1    3      ar
     3    1    4       1
     4    1   23       1
     5    4    5       1
     6    5    6       1
     7    6    7       1
     8    6    8       1
     9    7   12       1
    10    8    9       1
    11    8   10       1
    12   10   11       1
    13   10   12       1
    14   12   13       1
    15   13   14       1
    16   13   22       1
    17   14   15       2
    18   15   16       1
    19   16   17      ar
    20   16   22      ar
    21   17   18       1
    22   17   19      ar
    23   19   20      ar
    24   20   21      ar
    25   21   22      ar
    26   23   24       1
    27   24   25      ar
    28   24   26      ar
    29   24   27       1
    30   27   28       1
    31   28   29       1
    32   29   30       1
    33   29   31       1
    34   30   35       1
    35   31   32       1
    36   31   33       1
    37   33   34       1
    38   33   35       1
    39   35   36       1
    40   36   37      ar
    41   36   44      ar
    42   37   38      ar
    43   38   39       1
    44   38   42      ar
    45   39   40       2
    46   39   41      am
    47   42   43      ar
    48   43   44      ar
    49   44   70       1
    50    5   45       1
    51    5   46       1
    52    6   47       1
    53    8   48       1
    54    9   49       1
    55   10   50       1
    56   11   51       1
    57   12   52       1
    58   14   53       1
    59   18   54       1
    60   18   55       1
    61   20   56       1
    62   43   69       1
    63   28   57       1
    64   28   58       1
    65   29   59       1
    66   31   60       1
    67   32   61       1
    68   33   62       1
    69   34   63       1
    70   35   64       1
    71   37   65       1
    72   41   66       1
    73   41   67       1
    74   42   68       1
@<TRIPOS>SUBSTRUCTURE
     1 NAD463      1 GROUP             4 C     NAD     0 **** NAD C 463
