@<TRIPOS>MOLECULE
1fue_FMN_1_ligand
   50    52     1     0     0
SMALL
NO_CHARGES


@<TRIPOS>ATOM
     1 N1         -30.3530   -24.0790   -37.5720 N.2          1 FMN165   0.0000
     2 C2         -31.5110   -24.1120   -38.3080 C.2          1 FMN165   0.0000
     3 O2         -31.6970   -23.4360   -39.2810 O.2          1 FMN165   0.0000
     4 N3         -32.5720   -25.0030   -37.9000 N.pl3        1 FMN165   0.0000
     5 C4         -32.5210   -25.8320   -36.8220 C.2          1 FMN165   0.0000
     6 O4         -33.4790   -26.5740   -36.5300 O.2          1 FMN165   0.0000
     7 C4A        -31.2830   -25.7920   -36.0400 C.2          1 FMN165   0.0000
     8 N5         -31.1540   -26.5620   -34.9800 N.2          1 FMN165   0.0000
     9 C5A        -29.9990   -26.5210   -34.2530 C.ar         1 FMN165   0.0000
    10 C6         -29.8640   -27.3780   -33.0720 C.ar         1 FMN165   0.0000
    11 C7         -28.7530   -27.4070   -32.2810 C.ar         1 FMN165   0.0000
    12 C7M        -28.6340   -28.3170   -31.0360 C.3          1 FMN165   0.0000
    13 C8         -27.6050   -26.5340   -32.6270 C.ar         1 FMN165   0.0000
    14 C8M        -26.3510   -26.5330   -31.7880 C.3          1 FMN165   0.0000
    15 C9         -27.7180   -25.7070   -33.7540 C.ar         1 FMN165   0.0000
    16 C9A        -28.8660   -25.6620   -34.5790 C.ar         1 FMN165   0.0000
    17 N10        -29.0400   -24.8340   -35.7370 N.pl3        1 FMN165   0.0000
    18 C10        -30.2140   -24.8610   -36.4930 C.2          1 FMN165   0.0000
    19 C1'        -27.9570   -23.9050   -36.1750 C.3          1 FMN165   0.0000
    20 C2'        -28.0950   -22.5510   -35.4760 C.3          1 FMN165   0.0000
    21 O2'        -29.3480   -21.9160   -35.7480 O.3          1 FMN165   0.0000
    22 C3'        -26.9970   -21.5520   -35.9040 C.3          1 FMN165   0.0000
    23 O3'        -25.6880   -22.2090   -35.8630 O.3          1 FMN165   0.0000
    24 C4'        -26.9470   -20.3080   -35.0290 C.3          1 FMN165   0.0000
    25 O4'        -25.9110   -19.4270   -35.5330 O.3          1 FMN165   0.0000
    26 C5'        -26.6290   -20.5710   -33.5510 C.3          1 FMN165   0.0000
    27 O5'        -26.6240   -19.3170   -32.8400 O.3          1 FMN165   0.0000
    28 P          -25.8330   -19.0560   -31.4940 P.3          1 FMN165   0.0000
    29 O1P        -24.3680   -19.2610   -31.7810 O.co2        1 FMN165   0.0000
    30 O2P        -26.3880   -19.9800   -30.4330 O.co2        1 FMN165  -1.0000
    31 O3P        -26.1570   -17.5540   -31.1530 O.co2        1 FMN165  -1.0000
    32 H1         -33.4065   -25.0113   -38.4509 H            1 FMN165   0.0000
    33 H2         -30.6295   -27.9752   -32.8324 H            1 FMN165   0.0000
    34 H7M1       -27.7415   -28.1793   -30.6065 H            1 FMN165   0.0000
    35 H7M2       -29.3566   -28.0865   -30.3843 H            1 FMN165   0.0000
    36 H7M3       -28.7270   -29.2736   -31.3122 H            1 FMN165   0.0000
    37 H8M1       -25.6927   -25.8862   -32.1732 H            1 FMN165   0.0000
    38 H8M2       -26.5763   -26.2618   -30.8522 H            1 FMN165   0.0000
    39 H8M3       -25.9529   -27.4503   -31.7825 H            1 FMN165   0.0000
    40 H9         -26.9449   -25.1171   -33.9870 H            1 FMN165   0.0000
    41 H1'1       -28.0179   -23.7721   -37.1642 H            1 FMN165   0.0000
    42 H1'2       -27.0690   -24.3041   -35.9464 H            1 FMN165   0.0000
    43 H2'        -28.0224   -22.6963   -34.4893 H            1 FMN165   0.0000
    44 H13        -30.0189   -22.1943   -35.0606 H            1 FMN165   0.0000
    45 H3'        -27.1783   -21.2683   -36.8456 H            1 FMN165   0.0000
    46 H15        -25.2772   -22.1909   -36.7746 H            1 FMN165   0.0000
    47 H4'        -27.8270   -19.8369   -35.0895 H            1 FMN165   0.0000
    48 H17        -25.8192   -19.5514   -36.5210 H            1 FMN165   0.0000
    49 H5'1       -25.7308   -21.0037   -33.4734 H            1 FMN165   0.0000
    50 H5'2       -27.3245   -21.1745   -33.1609 H            1 FMN165   0.0000
@<TRIPOS>BOND
     1    1    2       1
     2    1   18       2
     3    2    3       2
     4    2    4       1
     5    4    5       1
     6    5    6       2
     7    5    7       1
     8    7    8       2
     9    7   18       1
    10    8    9       1
    11    9   10      ar
    12    9   16      ar
    13   10   11      ar
    14   11   12       1
    15   11   13      ar
    16   13   14       1
    17   13   15      ar
    18   15   16      ar
    19   16   17       1
    20   17   18       1
    21   17   19       1
    22   19   20       1
    23   20   21       1
    24   20   22       1
    25   22   23       1
    26   22   24       1
    27   24   25       1
    28   24   26       1
    29   26   27       1
    30   27   28       1
    31   28   29      ar
    32   28   30      ar
    33   28   31      ar
    34    4   32       1
    35   10   33       1
    36   12   34       1
    37   12   35       1
    38   12   36       1
    39   14   37       1
    40   14   38       1
    41   14   39       1
    42   15   40       1
    43   19   41       1
    44   19   42       1
    45   20   43       1
    46   21   44       1
    47   22   45       1
    48   23   46       1
    49   24   47       1
    50   25   48       1
    51   26   49       1
    52   26   50       1
@<TRIPOS>SUBSTRUCTURE
     1 FMN165      1 GROUP             4 A     FMN     0 **** FMN A 165
