@<TRIPOS>MOLECULE
5ifi_PRX_3_ligand
   45    47     1     0     0
SMALL
NO_CHARGES


@<TRIPOS>ATOM
     1 O2'         27.8830    32.7880    21.5910 O.3          1 PRX701   0.0000
     2 C2'         26.5200    32.3940    21.6420 C.3          1 PRX701   0.0000
     3 C1'         25.7650    33.1670    20.6060 C.3          1 PRX701   0.0000
     4 O4'         26.0350    32.6630    19.3520 O.3          1 PRX701   0.0000
     5 C4'         26.4470    31.2690    19.5170 C.3          1 PRX701   0.0000
     6 C5'         25.5840    30.3840    18.6620 C.3          1 PRX701   0.0000
     7 O5'         25.8820    30.5500    17.2880 O.3          1 PRX701   0.0000
     8 P           25.1140    29.6960    16.1910 P.3          1 PRX701   0.0000
     9 O1P         25.7840    29.9660    14.9200 O.co2        1 PRX701   0.0000
    10 O2P         25.1380    28.3240    16.6970 O.co2        1 PRX701  -1.0000
    11 O3P         23.5610    30.2310    16.1840 O.3          1 PRX701   0.0000
    12 C1P         23.3590    31.5650    15.8170 C.3          1 PRX701   0.0000
    13 C2P         21.8880    31.9130    15.9910 C.3          1 PRX701   0.0000
    14 C3P         21.4290    31.5630    17.4010 C.3          1 PRX701   0.0000
    15 C3'         26.3570    31.0050    21.0370 C.3          1 PRX701   0.0000
    16 O3'         27.2870    30.0480    21.5030 O.3          1 PRX701   0.0000
    17 N9          24.6340    34.0530    20.8730 N.pl3        1 PRX701   0.0000
    18 C8          23.5270    33.7820    20.3680 C.2          1 PRX701   0.0000
    19 N7          22.6890    34.5680    20.7210 N.2          1 PRX701   0.0000
    20 C5          23.1970    35.5550    21.6300 C.ar         1 PRX701   0.0000
    21 C4          24.6610    35.1440    21.7550 C.ar         1 PRX701   0.0000
    22 N3          25.3990    35.9470    22.5940 N.ar         1 PRX701   0.0000
    23 C2          24.7310    37.0280    23.2270 C.ar         1 PRX701   0.0000
    24 N1          23.4030    37.2460    22.9940 N.ar         1 PRX701   0.0000
    25 C6          22.6530    36.5500    22.2320 C.ar         1 PRX701   0.0000
    26 N6          21.2460    36.8620    22.0470 N.pl3        1 PRX701   0.0000
    27 H2'         28.4027    32.2802    22.2781 H            1 PRX701   0.0000
    28 H2          26.1231    32.4725    22.5565 H            1 PRX701   0.0000
    29 H1'         26.4371    33.9050    20.5460 H            1 PRX701   0.0000
    30 H4'         27.3991    31.1744    19.2261 H            1 PRX701   0.0000
    31 H5'1        24.6239    30.6161    18.8177 H            1 PRX701   0.0000
    32 H5'2        25.7419    29.4300    18.9169 H            1 PRX701   0.0000
    33 H1P1        23.6223    31.6926    14.8608 H            1 PRX701   0.0000
    34 H1P2        23.9146    32.1598    16.3979 H            1 PRX701   0.0000
    35 H2P1        21.3455    31.3960    15.3289 H            1 PRX701   0.0000
    36 H2P2        21.7594    32.8924    15.8351 H            1 PRX701   0.0000
    37 H3P1        20.4619    31.7956    17.5041 H            1 PRX701   0.0000
    38 H3P2        21.5550    30.5836    17.5591 H            1 PRX701   0.0000
    39 H3P3        21.9689    32.0800    18.0653 H            1 PRX701   0.0000
    40 H3'         25.4358    30.6766    21.2457 H            1 PRX701   0.0000
    41 H15         27.5529    30.2708    22.4409 H            1 PRX701   0.0000
    42 H16         23.3586    33.0130    19.7513 H            1 PRX701   0.0000
    43 H17         25.2343    37.6316    23.8453 H            1 PRX701   0.0000
    44 H18         20.8397    37.6411    22.5243 H            1 PRX701   0.0000
    45 H19         20.6840    36.2976    21.4423 H            1 PRX701   0.0000
@<TRIPOS>BOND
     1    1    2       1
     2    2    3       1
     3    2   15       1
     4    3    4       1
     5    3   17       1
     6    4    5       1
     7    5    6       1
     8    5   15       1
     9    6    7       1
    10    7    8       1
    11    8    9      ar
    12    8   10      ar
    13    8   11       1
    14   11   12       1
    15   12   13       1
    16   13   14       1
    17   15   16       1
    18   17   18       1
    19   17   21       1
    20   18   19       2
    21   19   20       1
    22   20   21      ar
    23   20   25      ar
    24   21   22      ar
    25   22   23      ar
    26   23   24      ar
    27   24   25      ar
    28   25   26       1
    29    1   27       1
    30    2   28       1
    31    3   29       1
    32    5   30       1
    33    6   31       1
    34    6   32       1
    35   26   45       1
    36   12   33       1
    37   12   34       1
    38   13   35       1
    39   13   36       1
    40   14   37       1
    41   14   38       1
    42   14   39       1
    43   15   40       1
    44   16   41       1
    45   18   42       1
    46   23   43       1
    47   26   44       1
@<TRIPOS>SUBSTRUCTURE
     1 PRX701      1 GROUP             4 C     PRX     0 **** PRX C 701
