@<TRIPOS>MOLECULE
1zjz_SS2_1_ligand
   19    19     1     0     0
SMALL
NO_CHARGES


@<TRIPOS>ATOM
     1 O1          12.6210     8.8160    13.9150 O.3          1 SS21260   0.0000
     2 C1          13.6610     8.3140    13.0650 C.3          1 SS21260   0.0000
     3 C2          14.8200     7.9150    13.9000 C.ar         1 SS21260   0.0000
     4 C3          16.1000     8.3860    13.6090 C.ar         1 SS21260   0.0000
     5 C4          17.1830     8.0110    14.4000 C.ar         1 SS21260   0.0000
     6 C5          16.9870     7.1650    15.4900 C.ar         1 SS21260   0.0000
     7 C6          15.7100     6.6960    15.7830 C.ar         1 SS21260   0.0000
     8 C7          14.6310     7.0720    14.9880 C.ar         1 SS21260   0.0000
     9 C8          13.1390     7.1330    12.2510 C.3          1 SS21260   0.0000
    10 H1          11.8364     9.0868    13.3573 H            1 SS21260   0.0000
    11 H2          13.9466     9.0392    12.4385 H            1 SS21260   0.0000
    12 H3          16.2407     8.9957    12.8289 H            1 SS21260   0.0000
    13 H4          18.0998     8.3482    14.1862 H            1 SS21260   0.0000
    14 H5          17.7627     6.8954    16.0606 H            1 SS21260   0.0000
    15 H6          15.5675     6.0888    16.5647 H            1 SS21260   0.0000
    16 H7          13.7146     6.7334    15.2012 H            1 SS21260   0.0000
    17 H8          13.8680     6.7871    11.6603 H            1 SS21260   0.0000
    18 H9          12.8395     6.4075    12.8706 H            1 SS21260   0.0000
    19 H10         12.3675     7.4307    11.6888 H            1 SS21260   0.0000
@<TRIPOS>BOND
     1    1    2       1
     2    2    3       1
     3    2    9       1
     4    3    4      ar
     5    3    8      ar
     6    4    5      ar
     7    5    6      ar
     8    6    7      ar
     9    7    8      ar
    10    1   10       1
    11    2   11       1
    12    4   12       1
    13    5   13       1
    14    6   14       1
    15    7   15       1
    16    8   16       1
    17    9   17       1
    18    9   18       1
    19    9   19       1
@<TRIPOS>SUBSTRUCTURE
     1 SS21260     1 GROUP             4 A     SS2     0 **** SS2 A1260
