@<TRIPOS>MOLECULE
1j49_NAD_1_ligand
   70    74     1     0     0
SMALL
NO_CHARGES


@<TRIPOS>ATOM
     1 PA          58.3300    34.0370   118.5800 P.3          1 NAD350   0.0000
     2 O1A         57.2770    34.4560   119.5700 O.co2        1 NAD350   0.0000
     3 O2A         59.3080    32.9560   119.0260 O.co2        1 NAD350  -1.0000
     4 O5B         59.0610    35.2870   117.9680 O.3          1 NAD350   0.0000
     5 C5B         58.5070    36.6510   117.9640 C.3          1 NAD350   0.0000
     6 C4B         59.5510    37.6120   118.3360 C.3          1 NAD350   0.0000
     7 O4B         59.2600    38.9360   117.7120 O.3          1 NAD350   0.0000
     8 C3B         59.7430    37.9740   119.8510 C.3          1 NAD350   0.0000
     9 O3B         61.1890    37.8270   120.1790 O.3          1 NAD350   0.0000
    10 C2B         59.2370    39.3880   120.0420 C.3          1 NAD350   0.0000
    11 O2B         59.6850    40.1200   121.0740 O.3          1 NAD350   0.0000
    12 C1B         59.6410    39.9240   118.6470 C.3          1 NAD350   0.0000
    13 N9A         58.9240    41.1050   118.2540 N.pl3        1 NAD350   0.0000
    14 C8A         57.5880    41.4280   118.3700 C.2          1 NAD350   0.0000
    15 N7A         57.2440    42.6060   117.8840 N.2          1 NAD350   0.0000
    16 C5A         58.3550    43.1480   117.4000 C.ar         1 NAD350   0.0000
    17 C6A         58.5660    44.4420   116.7410 C.ar         1 NAD350   0.0000
    18 N6A         57.6520    45.3520   116.5080 N.pl3        1 NAD350   0.0000
    19 N1A         59.8840    44.6370   116.3870 N.ar         1 NAD350   0.0000
    20 C2A         60.8930    43.7850   116.5740 C.ar         1 NAD350   0.0000
    21 N3A         60.7210    42.5420   117.1850 N.ar         1 NAD350   0.0000
    22 C4A         59.4310    42.2500   117.5990 C.ar         1 NAD350   0.0000
    23 O3          57.5820    33.5300   117.2960 O.3          1 NAD350   0.0000
    24 PN          58.1290    32.4040   116.1860 P.3          1 NAD350   0.0000
    25 O1N         59.4680    32.8510   115.8380 O.co2        1 NAD350   0.0000
    26 O2N         57.8100    31.0530   116.6610 O.co2        1 NAD350  -1.0000
    27 O5D         57.1220    32.6920   114.9640 O.3          1 NAD350   0.0000
    28 C5D         57.5110    33.7710   114.0180 C.3          1 NAD350   0.0000
    29 C4D         56.3340    34.0740   113.1910 C.3          1 NAD350   0.0000
    30 O4D         56.3470    32.9860   112.1180 O.3          1 NAD350   0.0000
    31 C3D         54.9290    33.7680   113.8380 C.3          1 NAD350   0.0000
    32 O3D         54.5230    35.0140   114.3190 O.3          1 NAD350   0.0000
    33 C2D         54.0140    33.1580   112.7630 C.3          1 NAD350   0.0000
    34 O2D         53.0610    34.0430   112.3120 O.3          1 NAD350   0.0000
    35 C1D         55.0170    32.7140   111.6830 C.3          1 NAD350   0.0000
    36 N1N         54.9880    31.2620   111.1280 N.ar         1 NAD350   1.0000
    37 C2N         54.9150    31.1680   109.7380 C.ar         1 NAD350   0.0000
    38 C3N         54.9100    29.8750   109.2860 C.ar         1 NAD350   0.0000
    39 C7N         54.8330    29.7850   107.7110 C.2          1 NAD350   0.0000
    40 O7N         54.6390    28.6720   107.2200 O.2          1 NAD350   0.0000
    41 N7N         55.0370    30.9110   106.9640 N.am         1 NAD350   0.0000
    42 C4N         54.9860    28.7080   110.0640 C.ar         1 NAD350   0.0000
    43 C5N         55.0660    28.9540   111.4560 C.ar         1 NAD350   0.0000
    44 C6N         55.0730    30.2140   111.9800 C.ar         1 NAD350   0.0000
    45 H5B1        57.7555    36.7061   118.6214 H            1 NAD350   0.0000
    46 H5B2        58.1663    36.8683   117.0493 H            1 NAD350   0.0000
    47 H4B         60.4245    37.2813   117.9787 H            1 NAD350   0.0000
    48 H3B         59.2062    37.3471   120.4157 H            1 NAD350   0.0000
    49 H5          61.7255    38.4457   119.6052 H            1 NAD350   0.0000
    50 H2B         58.2385    39.3593   120.0890 H            1 NAD350   0.0000
    51 H7          60.5007    40.6263   120.7943 H            1 NAD350   0.0000
    52 H1B         60.6274    40.0833   118.6055 H            1 NAD350   0.0000
    53 H8A         56.9247    40.8112   118.7938 H            1 NAD350   0.0000
    54 H6A1        57.9012    46.2051   116.0496 H            1 NAD350   0.0000
    55 H6A2        56.7054    45.1932   116.7886 H            1 NAD350   0.0000
    56 H2A         61.8073    44.0467   116.2647 H            1 NAD350   0.0000
    57 H5D1        58.2657    33.4625   113.4389 H            1 NAD350   0.0000
    58 H5D2        57.7916    34.5859   114.5252 H            1 NAD350   0.0000
    59 H4D         56.3760    34.9923   112.7974 H            1 NAD350   0.0000
    60 H3D         55.0360    33.1273   114.5983 H            1 NAD350   0.0000
    61 H17         54.3899    34.9620   115.3087 H            1 NAD350   0.0000
    62 H2D         53.5593    32.3508   113.1395 H            1 NAD350   0.0000
    63 H19         53.1652    34.9163   112.7880 H            1 NAD350   0.0000
    64 H1D         54.8573    33.3117   110.8973 H            1 NAD350   0.0000
    65 H2N         54.8708    31.9633   109.1334 H            1 NAD350   0.0000
    66 H7N1        54.9903    30.8643   105.9662 H            1 NAD350   0.0000
    67 H7N2        55.2329    31.7817   107.4152 H            1 NAD350   0.0000
    68 H4N         54.9838    27.7884   109.6711 H            1 NAD350   0.0000
    69 H5N         55.1195    28.1740   112.0795 H            1 NAD350   0.0000
    70 H6N         55.1392    30.3591   112.9672 H            1 NAD350   0.0000
@<TRIPOS>BOND
     1    1    2      ar
     2    1    3      ar
     3    1    4       1
     4    1   23       1
     5    4    5       1
     6    5    6       1
     7    6    7       1
     8    6    8       1
     9    7   12       1
    10    8    9       1
    11    8   10       1
    12   10   11       1
    13   10   12       1
    14   12   13       1
    15   13   14       1
    16   13   22       1
    17   14   15       2
    18   15   16       1
    19   16   17      ar
    20   16   22      ar
    21   17   18       1
    22   17   19      ar
    23   19   20      ar
    24   20   21      ar
    25   21   22      ar
    26   23   24       1
    27   24   25      ar
    28   24   26      ar
    29   24   27       1
    30   27   28       1
    31   28   29       1
    32   29   30       1
    33   29   31       1
    34   30   35       1
    35   31   32       1
    36   31   33       1
    37   33   34       1
    38   33   35       1
    39   35   36       1
    40   36   37      ar
    41   36   44      ar
    42   37   38      ar
    43   38   39       1
    44   38   42      ar
    45   39   40       2
    46   39   41      am
    47   42   43      ar
    48   43   44      ar
    49   44   70       1
    50    5   45       1
    51    5   46       1
    52    6   47       1
    53    8   48       1
    54    9   49       1
    55   10   50       1
    56   11   51       1
    57   12   52       1
    58   14   53       1
    59   18   54       1
    60   18   55       1
    61   20   56       1
    62   43   69       1
    63   28   57       1
    64   28   58       1
    65   29   59       1
    66   31   60       1
    67   32   61       1
    68   33   62       1
    69   34   63       1
    70   35   64       1
    71   37   65       1
    72   41   66       1
    73   41   67       1
    74   42   68       1
@<TRIPOS>SUBSTRUCTURE
     1 NAD350      1 GROUP             4 A     NAD     0 **** NAD A 350
