@<TRIPOS>MOLECULE
1xdk_REA_2_ligand
   49    49     1     0     0
SMALL
NO_CHARGES


@<TRIPOS>ATOM
     1 C1          22.5470    28.9750   102.9320 C.3          1 9CR600   0.0000
     2 C2          22.5470    27.4810   103.4380 C.3          1 9CR600   0.0000
     3 C3          21.2420    26.8780   103.9700 C.3          1 9CR600   0.0000
     4 C4          20.0690    27.1090   103.0550 C.3          1 9CR600   0.0000
     5 C5          19.9620    28.4920   102.3810 C.2          1 9CR600   0.0000
     6 C6          21.0870    29.3770   102.3090 C.2          1 9CR600   0.0000
     7 C7          21.0780    30.7410   101.6580 C.2          1 9CR600   0.0000
     8 C8          20.2050    31.7740   101.6980 C.2          1 9CR600   0.0000
     9 C9          20.2130    33.0640   101.0850 C.2          1 9CR600   0.0000
    10 C10         19.1900    33.9210   101.3180 C.2          1 9CR600   0.0000
    11 C11         17.9640    33.7980   102.1000 C.2          1 9CR600   0.0000
    12 C12         17.0800    34.7660   102.2670 C.2          1 9CR600   0.0000
    13 C13         15.8030    34.6060   103.0220 C.2          1 9CR600   0.0000
    14 C14         15.0870    35.6900   103.0870 C.2          1 9CR600   0.0000
    15 C15         13.8010    36.0880   103.6760 C.2          1 9CR600   0.0000
    16 C16         23.7350    29.0130   101.9230 C.3          1 9CR600   0.0000
    17 C17         22.9610    29.8680   104.0910 C.3          1 9CR600   0.0000
    18 C18         18.5220    28.6120   101.8900 C.3          1 9CR600   0.0000
    19 C19         21.3650    33.4670   100.2040 C.3          1 9CR600   0.0000
    20 C20         15.3970    33.2960   103.6410 C.3          1 9CR600   0.0000
    21 O1          13.0250    36.7060   102.8640 O.co2        1 9CR600   0.0000
    22 O2          13.4800    35.8340   104.9220 O.co2        1 9CR600  -1.0000
    23 H1          23.2198    27.4211   104.1754 H            1 9CR600   0.0000
    24 H2          22.8418    26.9115   102.6707 H            1 9CR600   0.0000
    25 H3          21.0393    27.2909   104.8579 H            1 9CR600   0.0000
    26 H4          21.3691    25.8925   104.0820 H            1 9CR600   0.0000
    27 H5          19.2368    26.9710   103.5921 H            1 9CR600   0.0000
    28 H6          20.1145    26.4232   102.3287 H            1 9CR600   0.0000
    29 H7          21.8772    30.9148   101.0826 H            1 9CR600   0.0000
    30 H8          19.4000    31.6011   102.2655 H            1 9CR600   0.0000
    31 H9          19.2951    34.8078   100.8679 H            1 9CR600   0.0000
    32 H10         17.7799    32.9193   102.5405 H            1 9CR600   0.0000
    33 H11         17.2788    35.6590   101.8633 H            1 9CR600   0.0000
    34 H12         15.5269    36.4520   102.6117 H            1 9CR600   0.0000
    35 H13         23.8187    29.9334   101.5411 H            1 9CR600   0.0000
    36 H14         24.5819    28.7701   102.3960 H            1 9CR600   0.0000
    37 H15         23.5664    28.3599   101.1848 H            1 9CR600   0.0000
    38 H16         22.9675    30.8219   103.7910 H            1 9CR600   0.0000
    39 H17         22.3116    29.7597   104.8437 H            1 9CR600   0.0000
    40 H18         23.8761    29.6096   104.4005 H            1 9CR600   0.0000
    41 H19         18.3954    29.4967   101.4413 H            1 9CR600   0.0000
    42 H20         18.3294    27.8776   101.2392 H            1 9CR600   0.0000
    43 H21         17.8976    28.5404   102.6678 H            1 9CR600   0.0000
    44 H22         21.2126    34.3931    99.8588 H            1 9CR600   0.0000
    45 H23         22.2132    33.4439   100.7331 H            1 9CR600   0.0000
    46 H24         21.4345    32.8318    99.4348 H            1 9CR600   0.0000
    47 H25         14.5138    33.4027   104.0978 H            1 9CR600   0.0000
    48 H26         15.3213    32.5994   102.9275 H            1 9CR600   0.0000
    49 H27         16.0861    33.0153   104.3091 H            1 9CR600   0.0000
@<TRIPOS>BOND
     1    1    2       1
     2    1    6       1
     3    1   16       1
     4    1   17       1
     5    2    3       1
     6    3    4       1
     7    4    5       1
     8    5    6       2
     9    5   18       1
    10    6    7       1
    11    7    8       2
    12    8    9       1
    13    9   10       2
    14    9   19       1
    15   10   11       1
    16   11   12       2
    17   12   13       1
    18   13   14       2
    19   13   20       1
    20   14   15       1
    21   15   21      ar
    22   15   22      ar
    23    2   23       1
    24    2   24       1
    25    3   25       1
    26    3   26       1
    27    4   27       1
    28    4   28       1
    29    7   29       1
    30    8   30       1
    31   10   31       1
    32   11   32       1
    33   12   33       1
    34   14   34       1
    35   16   35       1
    36   16   36       1
    37   16   37       1
    38   17   38       1
    39   17   39       1
    40   17   40       1
    41   18   41       1
    42   18   42       1
    43   18   43       1
    44   19   44       1
    45   19   45       1
    46   19   46       1
    47   20   47       1
    48   20   48       1
    49   20   49       1
@<TRIPOS>SUBSTRUCTURE
     1 9CR600      1 GROUP             4 B     9CR     0 **** 9CR B 600
