@<TRIPOS>MOLECULE
1kev_NDP_4_ligand
   73    77     1     0     0
SMALL
NO_CHARGES


@<TRIPOS>ATOM
     1 PA          29.6500     5.4080    13.6700 P.3          1 NDP352   0.0000
     2 O1A         29.7160     5.0800    12.2110 O.co2        1 NDP352   0.0000
     3 O2A         29.8680     4.2840    14.6250 O.co2        1 NDP352  -1.0000
     4 O5B         28.1090     5.9810    13.9560 O.3          1 NDP352   0.0000
     5 C5B         27.7940     6.6620    15.1940 C.3          1 NDP352   0.0000
     6 C4B         26.3270     7.0370    15.3740 C.3          1 NDP352   0.0000
     7 O4B         25.8110     7.9230    14.3510 O.3          1 NDP352   0.0000
     8 C3B         25.4150     5.8100    15.5260 C.3          1 NDP352   0.0000
     9 O3B         24.8970     5.7020    16.8580 O.3          1 NDP352   0.0000
    10 C2B         24.2510     6.1050    14.6050 C.3          1 NDP352   0.0000
    11 O2B         23.0550     5.3100    14.4840 O.3          1 NDP352   0.0000
    12 C1B         24.4410     7.5300    14.1460 C.3          1 NDP352   0.0000
    13 N9A         23.4640     8.2920    13.3320 N.pl3        1 NDP352   0.0000
    14 C8A         23.2560     8.1400    12.0110 C.2          1 NDP352   0.0000
    15 N7A         22.3260     9.0000    11.5680 N.2          1 NDP352   0.0000
    16 C5A         21.9680     9.6700    12.6580 C.ar         1 NDP352   0.0000
    17 C6A         21.0150    10.6870    12.6960 C.ar         1 NDP352   0.0000
    18 N6A         20.3690    11.0830    11.6030 N.pl3        1 NDP352   0.0000
    19 N1A         20.7820    11.2450    13.9030 N.ar         1 NDP352   0.0000
    20 C2A         21.4390    10.8330    14.9940 C.ar         1 NDP352   0.0000
    21 N3A         22.3590     9.8640    14.9480 N.ar         1 NDP352   0.0000
    22 C4A         22.6520     9.2520    13.7790 C.ar         1 NDP352   0.0000
    23 O3          30.6590     6.5630    14.0250 O.3          1 NDP352   0.0000
    24 PN          32.0190     6.7710    14.7890 P.3          1 NDP352   0.0000
    25 O1N         33.0620     5.7430    14.4620 O.co2        1 NDP352   0.0000
    26 O2N         31.7650     7.0660    16.2430 O.co2        1 NDP352  -1.0000
    27 O5D         32.6250     8.1270    14.1870 O.3          1 NDP352   0.0000
    28 C5D         32.0840     9.5340    14.3420 C.3          1 NDP352   0.0000
    29 C4D         32.7100    10.7180    13.5410 C.3          1 NDP352   0.0000
    30 O4D         33.9260    11.3140    14.0710 O.3          1 NDP352   0.0000
    31 C3D         33.0410    10.2250    12.1120 C.3          1 NDP352   0.0000
    32 O3D         32.9360    11.2780    11.1980 O.3          1 NDP352   0.0000
    33 C2D         34.5560    10.0100    12.1880 C.3          1 NDP352   0.0000
    34 O2D         35.3780    10.1720    10.9650 O.3          1 NDP352   0.0000
    35 C1D         34.9380    11.1720    13.1480 C.3          1 NDP352   0.0000
    36 N1N         36.3380    11.0380    13.6830 N.ar         1 NDP352   1.0000
    37 C2N         37.5490    11.6240    13.0960 C.ar         1 NDP352   0.0000
    38 C3N         38.8070    11.1380    13.4730 C.ar         1 NDP352   0.0000
    39 C7N         40.1590    11.7410    13.0100 C.2          1 NDP352   0.0000
    40 O7N         40.3178    12.2896    11.9189 O.2          1 NDP352   0.0000
    41 N7N         41.1562    11.6094    13.8907 N.am         1 NDP352   0.0000
    42 C4N         38.7790    10.1210    14.4240 C.ar         1 NDP352   0.0000
    43 C5N         37.6480     9.5630    15.0190 C.ar         1 NDP352   0.0000
    44 C6N         36.4030    10.0080    14.6590 C.ar         1 NDP352   0.0000
    45 P2B         23.0610     3.6900    14.4820 P.3          1 NDP352   0.0000
    46 O1X         21.7870     3.3890    13.7900 O.co2        1 NDP352   0.0000
    47 O2X         23.0390     3.3200    15.9260 O.co2        1 NDP352  -1.0000
    48 O3X         24.2900     3.2810    13.7480 O.co2        1 NDP352  -1.0000
    49 H5B1        28.3348     7.5023    15.2311 H            1 NDP352   0.0000
    50 H5B2        28.0555     6.0636    15.9514 H            1 NDP352   0.0000
    51 H4B         26.2688     7.5393    16.2367 H            1 NDP352   0.0000
    52 H3B         25.8881     4.9722    15.2533 H            1 NDP352   0.0000
    53 H5          23.9996     5.2616    16.8320 H            1 NDP352   0.0000
    54 H2B         24.6889     5.7066    13.7991 H            1 NDP352   0.0000
    55 H1B         24.1282     7.9219    15.0112 H            1 NDP352   0.0000
    56 H8A         23.7315     7.4744    11.4358 H            1 NDP352   0.0000
    57 H6A1        19.6904    11.8152    11.6610 H            1 NDP352   0.0000
    58 H6A2        20.5618    10.6485    10.7232 H            1 NDP352   0.0000
    59 H2A         21.2349    11.2644    15.8728 H            1 NDP352   0.0000
    60 H5D1        32.1680     9.7678    15.3107 H            1 NDP352   0.0000
    61 H5D2        31.1168     9.4980    14.0904 H            1 NDP352   0.0000
    62 H4D         32.0206    11.4385    13.4666 H            1 NDP352   0.0000
    63 H3D         32.5328     9.4072    11.8420 H            1 NDP352   0.0000
    64 H16         32.0034    11.6387    11.2107 H            1 NDP352   0.0000
    65 H2D         34.7552     9.1303    12.6198 H            1 NDP352   0.0000
    66 H18         34.8315     9.9338    10.1621 H            1 NDP352   0.0000
    67 H1D         34.9295    12.0049    12.5947 H            1 NDP352   0.0000
    68 H2N         37.4760    12.3666    12.4302 H            1 NDP352   0.0000
    69 H7N1        42.0680    11.9550    13.6689 H            1 NDP352   0.0000
    70 H7N2        40.9904    11.1654    14.7712 H            1 NDP352   0.0000
    71 H4N         39.6632     9.7520    14.7104 H            1 NDP352   0.0000
    72 H5N         37.7450     8.8418    15.7049 H            1 NDP352   0.0000
    73 H6N         35.5746     9.6236    15.0664 H            1 NDP352   0.0000
@<TRIPOS>BOND
     1    1    2      ar
     2    1    3      ar
     3    1    4       1
     4    1   23       1
     5    4    5       1
     6    5    6       1
     7    6    7       1
     8    6    8       1
     9    7   12       1
    10    8    9       1
    11    8   10       1
    12   10   11       1
    13   10   12       1
    14   11   45       1
    15   12   13       1
    16   13   14       1
    17   13   22       1
    18   14   15       2
    19   15   16       1
    20   16   17      ar
    21   16   22      ar
    22   17   18       1
    23   17   19      ar
    24   19   20      ar
    25   20   21      ar
    26   21   22      ar
    27   23   24       1
    28   24   25      ar
    29   24   26      ar
    30   24   27       1
    31   27   28       1
    32   28   29       1
    33   29   30       1
    34   29   31       1
    35   30   35       1
    36   31   32       1
    37   31   33       1
    38   33   34       1
    39   33   35       1
    40   35   36       1
    41   36   37      ar
    42   36   44      ar
    43   37   38      ar
    44   38   39       1
    45   38   42      ar
    46   39   40       2
    47   39   41      am
    48   42   43      ar
    49   43   44      ar
    50   45   46      ar
    51   45   47      ar
    52   45   48      ar
    53   43   72       1
    54    5   49       1
    55    5   50       1
    56    6   51       1
    57    8   52       1
    58    9   53       1
    59   10   54       1
    60   12   55       1
    61   14   56       1
    62   18   57       1
    63   18   58       1
    64   20   59       1
    65   44   73       1
    66   28   60       1
    67   28   61       1
    68   29   62       1
    69   31   63       1
    70   32   64       1
    71   33   65       1
    72   34   66       1
    73   35   67       1
    74   37   68       1
    75   41   69       1
    76   41   70       1
    77   42   71       1
@<TRIPOS>SUBSTRUCTURE
     1 NDP352      1 GROUP             4 D     NDP     0 **** NDP D 352
