@<TRIPOS>MOLECULE
4k2x_FAD_2_ligand
   84    89     1     0     0
SMALL
NO_CHARGES


@<TRIPOS>ATOM
     1 PA         -23.4250   -16.7970    18.8200 P.3          1 FAD601   0.0000
     2 O1A        -23.9060   -15.6900    17.9580 O.co2        1 FAD601   0.0000
     3 O2A        -22.9020   -16.4800    20.2260 O.co2        1 FAD601  -1.0000
     4 O5B        -24.6090   -17.7900    19.1130 O.3          1 FAD601   0.0000
     5 C5B        -24.2550   -19.0550    19.6790 C.3          1 FAD601   0.0000
     6 C4B        -25.5840   -19.6380    20.0480 C.3          1 FAD601   0.0000
     7 O4B        -25.4240   -20.8820    20.7680 O.3          1 FAD601   0.0000
     8 C3B        -26.4390   -18.7180    20.9160 C.3          1 FAD601   0.0000
     9 O3B        -27.6620   -18.5780    20.2100 O.3          1 FAD601   0.0000
    10 C2B        -26.5680   -19.4800    22.2380 C.3          1 FAD601   0.0000
    11 O2B        -27.8580   -19.2850    22.7880 O.3          1 FAD601   0.0000
    12 C1B        -26.4080   -20.9280    21.7790 C.3          1 FAD601   0.0000
    13 N9A        -25.9600   -21.8530    22.8130 N.pl3        1 FAD601   0.0000
    14 C8A        -25.0430   -21.5860    23.7940 C.2          1 FAD601   0.0000
    15 N7A        -24.8050   -22.5950    24.5930 N.2          1 FAD601   0.0000
    16 C5A        -25.6180   -23.6040    24.1000 C.ar         1 FAD601   0.0000
    17 C6A        -25.7800   -24.9520    24.4730 C.ar         1 FAD601   0.0000
    18 N6A        -25.1440   -25.5030    25.5150 N.pl3        1 FAD601   0.0000
    19 N1A        -26.6160   -25.7210    23.7220 N.ar         1 FAD601   0.0000
    20 C2A        -27.2520   -25.1560    22.6870 C.ar         1 FAD601   0.0000
    21 N3A        -27.1830   -23.8880    22.2510 N.ar         1 FAD601   0.0000
    22 C4A        -26.3360   -23.1620    23.0020 C.ar         1 FAD601   0.0000
    23 N1         -19.4880    -9.2030    13.9020 N.2          1 FAD601   0.0000
    24 C2         -19.5490    -8.7110    12.6190 C.2          1 FAD601   0.0000
    25 O2         -19.2250    -9.3980    11.6430 O.2          1 FAD601   0.0000
    26 N3         -19.9610    -7.3970    12.4020 N.pl3        1 FAD601   0.0000
    27 C4         -20.2920    -6.4750    13.3810 C.2          1 FAD601   0.0000
    28 O4         -20.7540    -5.3890    13.0480 O.2          1 FAD601   0.0000
    29 C4X        -20.1380    -6.9930    14.7690 C.2          1 FAD601   0.0000
    30 N5         -20.3770    -6.1740    15.7770 N.2          1 FAD601   0.0000
    31 C5X        -20.3260    -6.7110    17.0750 C.ar         1 FAD601   0.0000
    32 C6         -20.5960    -5.8760    18.1680 C.ar         1 FAD601   0.0000
    33 C7         -20.5470    -6.3550    19.4740 C.ar         1 FAD601   0.0000
    34 C7M        -20.6670    -5.3950    20.6260 C.3          1 FAD601   0.0000
    35 C8         -20.2790    -7.7280    19.7000 C.ar         1 FAD601   0.0000
    36 C8M        -20.2030    -8.2960    21.0960 C.3          1 FAD601   0.0000
    37 C9         -20.0260    -8.5600    18.6160 C.ar         1 FAD601   0.0000
    38 C9A        -20.0220    -8.0700    17.3110 C.ar         1 FAD601   0.0000
    39 N10        -19.7400    -8.8950    16.1920 N.pl3        1 FAD601   0.0000
    40 C10        -19.7720    -8.3910    14.9200 C.2          1 FAD601   0.0000
    41 C1'        -19.4740   -10.3300    16.4190 C.3          1 FAD601   0.0000
    42 C2'        -20.7060   -11.2060    16.2050 C.3          1 FAD601   0.0000
    43 O2'        -21.8380   -10.7130    16.9230 O.3          1 FAD601   0.0000
    44 C3'        -20.4040   -12.6460    16.6200 C.3          1 FAD601   0.0000
    45 O3'        -19.1050   -13.0110    16.1550 O.3          1 FAD601   0.0000
    46 C4'        -21.4520   -13.6620    16.1580 C.3          1 FAD601   0.0000
    47 O4'        -22.6680   -13.4610    16.8750 O.3          1 FAD601   0.0000
    48 C5'        -21.0000   -15.0960    16.2990 C.3          1 FAD601   0.0000
    49 O5'        -22.0180   -15.9760    15.7820 O.3          1 FAD601   0.0000
    50 P          -22.0140   -17.4580    16.4200 P.3          1 FAD601   0.0000
    51 O1P        -20.6680   -18.0680    16.3330 O.co2        1 FAD601   0.0000
    52 O2P        -23.1970   -18.0930    15.7210 O.co2        1 FAD601  -1.0000
    53 O3P        -22.1620   -17.4220    18.0100 O.3          1 FAD601   0.0000
    54 H5B1       -23.6761   -18.9390    20.4861 H            1 FAD601   0.0000
    55 H5B2       -23.7831   -19.6293    19.0101 H            1 FAD601   0.0000
    56 H4B        -26.0868   -19.8277    19.2047 H            1 FAD601   0.0000
    57 H3B        -25.9953   -17.8320    21.0507 H            1 FAD601   0.0000
    58 H5         -28.0859   -19.4765    20.0961 H            1 FAD601   0.0000
    59 H2B        -25.8506   -19.2185    22.8837 H            1 FAD601   0.0000
    60 H7         -28.5480   -19.6210    22.1469 H            1 FAD601   0.0000
    61 H1B        -27.2706   -21.2528    21.3911 H            1 FAD601   0.0000
    62 H8A        -24.5943   -20.6977    23.8915 H            1 FAD601   0.0000
    63 H6A1       -25.2930   -26.4660    25.7394 H            1 FAD601   0.0000
    64 H6A2       -24.5202   -24.9513    26.0686 H            1 FAD601   0.0000
    65 H2A        -27.8593   -25.7593    22.1701 H            1 FAD601   0.0000
    66 H13        -20.0233    -7.0920    11.4517 H            1 FAD601   0.0000
    67 H14        -20.8285    -4.9169    18.0063 H            1 FAD601   0.0000
    68 H7M1       -20.6124    -5.8997    21.4876 H            1 FAD601   0.0000
    69 H7M2       -19.9233    -4.7278    20.5828 H            1 FAD601   0.0000
    70 H7M3       -21.5450    -4.9193    20.5734 H            1 FAD601   0.0000
    71 H8M1       -20.0062    -9.2752    21.0472 H            1 FAD601   0.0000
    72 H8M2       -19.4758    -7.8348    21.6044 H            1 FAD601   0.0000
    73 H8M3       -21.0766    -8.1543    21.5615 H            1 FAD601   0.0000
    74 H21        -19.8431    -9.5301    18.7754 H            1 FAD601   0.0000
    75 H1'1       -19.1568   -10.4504    17.3597 H            1 FAD601   0.0000
    76 H1'2       -18.7588   -10.6256    15.7857 H            1 FAD601   0.0000
    77 H2'        -20.9277   -11.2013    15.2299 H            1 FAD601   0.0000
    78 H25        -22.5736   -10.4999    16.2800 H            1 FAD601   0.0000
    79 H3'        -20.3824   -12.6714    17.6194 H            1 FAD601   0.0000
    80 H27        -18.7043   -13.6825    16.7784 H            1 FAD601   0.0000
    81 H4'        -21.6361   -13.4930    15.1897 H            1 FAD601   0.0000
    82 H29        -22.8979   -14.2923    17.3810 H            1 FAD601   0.0000
    83 H5'1       -20.8412   -15.3016    17.2647 H            1 FAD601   0.0000
    84 H5'2       -20.1522   -15.2299    15.7859 H            1 FAD601   0.0000
@<TRIPOS>BOND
     1    1    2      ar
     2    1    3      ar
     3    1    4       1
     4    1   53       1
     5    4    5       1
     6    5    6       1
     7    6    7       1
     8    6    8       1
     9    7   12       1
    10    8    9       1
    11    8   10       1
    12   10   11       1
    13   10   12       1
    14   12   13       1
    15   13   14       1
    16   13   22       1
    17   14   15       2
    18   15   16       1
    19   16   17      ar
    20   16   22      ar
    21   17   18       1
    22   17   19      ar
    23   19   20      ar
    24   20   21      ar
    25   21   22      ar
    26   23   24       1
    27   23   40       2
    28   24   25       2
    29   24   26       1
    30   26   27       1
    31   27   28       2
    32   27   29       1
    33   29   30       2
    34   29   40       1
    35   30   31       1
    36   31   32      ar
    37   31   38      ar
    38   32   33      ar
    39   33   34       1
    40   33   35      ar
    41   35   36       1
    42   35   37      ar
    43   37   38      ar
    44   38   39       1
    45   39   40       1
    46   39   41       1
    47   41   42       1
    48   42   43       1
    49   42   44       1
    50   44   45       1
    51   44   46       1
    52   46   47       1
    53   46   48       1
    54   48   49       1
    55   49   50       1
    56   50   51      ar
    57   50   52      ar
    58   50   53       1
    59   48   84       1
    60    5   54       1
    61    5   55       1
    62    6   56       1
    63    8   57       1
    64    9   58       1
    65   10   59       1
    66   11   60       1
    67   12   61       1
    68   14   62       1
    69   18   63       1
    70   18   64       1
    71   20   65       1
    72   26   66       1
    73   32   67       1
    74   34   68       1
    75   34   69       1
    76   34   70       1
    77   36   71       1
    78   36   72       1
    79   36   73       1
    80   37   74       1
    81   41   75       1
    82   41   76       1
    83   42   77       1
    84   43   78       1
    85   44   79       1
    86   45   80       1
    87   46   81       1
    88   47   82       1
    89   48   83       1
@<TRIPOS>SUBSTRUCTURE
     1 FAD601      1 GROUP             4 B     FAD     0 **** FAD B 601
