@<TRIPOS>MOLECULE
2z0x_5CA_1_ligand
   49    51     1     0     0
SMALL
NO_CHARGES


@<TRIPOS>ATOM
     1 N           17.5810    38.1500    29.1850 N.4          1 5CA200   1.0000
     2 CA          18.5850    37.7100    30.1650 C.3          1 5CA200   0.0000
     3 CB          19.5490    36.7100    29.5200 C.3          1 5CA200   0.0000
     4 SG          20.3000    37.3300    27.9660 S.3          1 5CA200   0.0000
     5 C           19.2710    38.9400    30.7690 C.2          1 5CA200   0.0000
     6 O           18.9470    40.0680    30.4060 O.2          1 5CA200   0.0000
     7 N3S         20.1960    38.6950    31.6940 N.am         1 5CA200   0.0000
     8 S           20.9780    39.9040    32.4670 S.o2         1 5CA200   0.0000
     9 O1S         21.6350    40.7800    31.5480 O.2          1 5CA200   0.0000
    10 O2S         21.9710    39.2730    33.3990 O.2          1 5CA200   0.0000
    11 O5'         20.0450    40.6760    33.2300 O.3          1 5CA200   0.0000
    12 C5'         19.8720    40.3260    34.6050 C.3          1 5CA200   0.0000
    13 C4'         20.8740    41.0830    35.4790 C.3          1 5CA200   0.0000
    14 O4'         20.4040    42.4210    35.7240 O.3          1 5CA200   0.0000
    15 C3'         21.0490    40.4420    36.8540 C.3          1 5CA200   0.0000
    16 O3'         22.0130    39.3860    36.7840 O.3          1 5CA200   0.0000
    17 C2'         21.6450    41.6240    37.6140 C.3          1 5CA200   0.0000
    18 O2'         23.0460    41.7960    37.3680 O.3          1 5CA200   0.0000
    19 C1'         20.8410    42.7960    37.0440 C.3          1 5CA200   0.0000
    20 N9          19.6280    43.0520    37.8510 N.pl3        1 5CA200   0.0000
    21 C8          18.6280    42.2170    38.1370 C.2          1 5CA200   0.0000
    22 N7          17.7790    42.8080    38.9810 N.2          1 5CA200   0.0000
    23 C5          18.2430    44.0290    39.2280 C.ar         1 5CA200   0.0000
    24 C6          17.8320    45.0950    40.0190 C.ar         1 5CA200   0.0000
    25 N6          16.7440    44.9920    40.7800 N.pl3        1 5CA200   0.0000
    26 N1          18.5720    46.2140    40.0330 N.ar         1 5CA200   0.0000
    27 C2          19.6810    46.3330    39.3230 C.ar         1 5CA200   0.0000
    28 N3          20.1070    45.3370    38.5650 N.ar         1 5CA200   0.0000
    29 C4          19.4170    44.1890    38.5020 C.ar         1 5CA200   0.0000
    30 H1          16.9575    38.8020    29.6164 H            1 5CA200   0.0000
    31 H2          18.0395    38.5886    28.4121 H            1 5CA200   0.0000
    32 HA          18.1036    37.2367    30.9027 H            1 5CA200   0.0000
    33 HB1         19.0464    35.8697    29.3169 H            1 5CA200   0.0000
    34 HB2         20.2823    36.5109    30.1701 H            1 5CA200   0.0000
    35 HG          20.9167    36.6363    27.5939 H            1 5CA200   0.0000
    36 H3S         20.4182    37.7470    31.9218 H            1 5CA200   0.0000
    37 H5'1        20.0159    39.3426    34.7152 H            1 5CA200   0.0000
    38 H5'2        18.9428    40.5609    34.8903 H            1 5CA200   0.0000
    39 H4'         21.7587    41.1209    35.0145 H            1 5CA200   0.0000
    40 H3'         20.1802    40.1381    37.2449 H            1 5CA200   0.0000
    41 H12         21.9949    38.9781    35.8711 H            1 5CA200   0.0000
    42 H2'         21.4733    41.5290    38.5946 H            1 5CA200   0.0000
    43 H14         23.2646    41.4745    36.4467 H            1 5CA200   0.0000
    44 H1'         21.4089    43.6180    37.0010 H            1 5CA200   0.0000
    45 H16         18.5293    41.2902    37.7747 H            1 5CA200   0.0000
    46 H17         16.4550    45.7639    41.3463 H            1 5CA200   0.0000
    47 H18         16.2160    44.1428    40.7851 H            1 5CA200   0.0000
    48 H19         20.2030    47.1852    39.3597 H            1 5CA200   0.0000
    49 H20         17.0632    37.3586    28.8600 H            1 5CA200   0.0000
@<TRIPOS>BOND
     1    1    2       1
     2    2    3       1
     3    2    5       1
     4    3    4       1
     5    5    6       2
     6    5    7      am
     7    7    8       1
     8    8    9       2
     9    8   10       2
    10    8   11       1
    11   11   12       1
    12   12   13       1
    13   13   14       1
    14   13   15       1
    15   14   19       1
    16   15   16       1
    17   15   17       1
    18   17   18       1
    19   17   19       1
    20   19   20       1
    21   20   21       1
    22   20   29       1
    23   21   22       2
    24   22   23       1
    25   23   24      ar
    26   23   29      ar
    27   24   25       1
    28   24   26      ar
    29   26   27      ar
    30   27   28      ar
    31   28   29      ar
    32    1   30       1
    33    1   31       1
    34    2   32       1
    35    3   33       1
    36    3   34       1
    37    4   35       1
    38    7   36       1
    39   12   37       1
    40   12   38       1
    41   13   39       1
    42   15   40       1
    43   16   41       1
    44   17   42       1
    45   18   43       1
    46   19   44       1
    47   21   45       1
    48   25   46       1
    49   25   47       1
    50   27   48       1
    51    1   49       1
@<TRIPOS>SUBSTRUCTURE
     1 5CA200      1 GROUP             4 A     5CA     0 **** 5CA A 200
