@<TRIPOS>MOLECULE
1n4q_LYS_CYS_VAL_ILE_LEU_2_ligand
   89    88     5     0     0
SMALL
NO_CHARGES


@<TRIPOS>ATOM
     1 N          -16.2200    27.0310    65.2090 N.4          1 LYS207   1.0000
     2 CA         -17.6920    27.2890    65.2570 C.3          1 LYS207   0.0000
     3 C          -18.0660    28.3360    66.3190 C.2          1 LYS207   0.0000
     4 O          -17.3450    28.5240    67.3010 O.2          1 LYS207   0.0000
     5 CB         -18.4470    25.9800    65.5410 C.3          1 LYS207   0.0000
     6 CG         -19.9610    26.1040    65.3850 C.3          1 LYS207   0.0000
     7 CD         -20.7300    24.8860    65.9080 C.3          1 LYS207   0.0000
     8 CE         -22.2510    25.1630    65.9140 C.3          1 LYS207   0.0000
     9 NZ         -23.0610    24.1540    66.6740 N.4          1 LYS207   1.0000
    10 H1         -15.7878    27.6814    64.5843 H            1 LYS207   0.0000
    11 H2         -15.8324    27.1401    66.1244 H            1 LYS207   0.0000
    12 HA         -17.9807    27.6310    64.3628 H            1 LYS207   0.0000
    13 HB1        -18.2476    25.6967    66.4791 H            1 LYS207   0.0000
    14 HB2        -18.1194    25.2813    64.9050 H            1 LYS207   0.0000
    15 HG1        -20.1711    26.2182    64.4140 H            1 LYS207   0.0000
    16 HG2        -20.2663    26.9118    65.8893 H            1 LYS207   0.0000
    17 HD1        -20.4294    24.6831    66.8399 H            1 LYS207   0.0000
    18 HD2        -20.5415    24.1006    65.3185 H            1 LYS207   0.0000
    19 HE1        -22.5712    25.1719    64.9667 H            1 LYS207   0.0000
    20 HE2        -22.4038    26.0613    66.3259 H            1 LYS207   0.0000
    21 HZ1        -24.0287    24.4024    66.6306 H            1 LYS207   0.0000
    22 HZ2        -22.9307    23.2489    66.2693 H            1 LYS207   0.0000
    23 HZ3        -22.7634    24.1383    67.6286 H            1 LYS207   0.0000
    24 N          -19.1910    29.0200    66.1120 N.am         2 CYS208   0.0000
    25 CA         -19.6660    30.0360    67.0580 C.3          2 CYS208   0.0000
    26 C          -21.0920    29.7240    67.5060 C.2          2 CYS208   0.0000
    27 O          -22.0540    30.0190    66.7960 O.2          2 CYS208   0.0000
    28 CB         -19.6360    31.4420    66.4280 C.3          2 CYS208   0.0000
    29 SG         -18.0300    32.2920    66.4190 S.3          2 CYS208  -1.0000
    30 H15        -19.7269    28.8354    65.2881 H            2 CYS208   0.0000
    31 H16        -19.0693    30.0312    67.8604 H            2 CYS208   0.0000
    32 H17        -20.2805    32.0154    66.9338 H            2 CYS208   0.0000
    33 H18        -19.9398    31.3563    65.4791 H            2 CYS208   0.0000
    34 N          -21.2260    29.1280    68.6850 N.am         3 VAL209   0.0000
    35 CA         -22.5420    28.7960    69.2080 C.3          3 VAL209   0.0000
    36 C          -23.0980    30.0160    69.9370 C.2          3 VAL209   0.0000
    37 O          -22.5590    30.4470    70.9580 O.2          3 VAL209   0.0000
    38 CB         -22.4660    27.5930    70.1730 C.3          3 VAL209   0.0000
    39 CG1        -23.8510    27.2800    70.7380 C.3          3 VAL209   0.0000
    40 CG2        -21.9090    26.3850    69.4360 C.3          3 VAL209   0.0000
    41 H19        -20.4115    28.9045    69.2203 H            3 VAL209   0.0000
    42 H20        -23.1479    28.5662    68.4464 H            3 VAL209   0.0000
    43 HB         -21.8524    27.8224    70.9286 H            3 VAL209   0.0000
    44 HG11       -23.7885    26.5000    71.3607 H            3 VAL209   0.0000
    45 HG12       -24.1961    28.0763    71.2348 H            3 VAL209   0.0000
    46 HG13       -24.4747    27.0588    69.9883 H            3 VAL209   0.0000
    47 HG21       -21.8601    25.6063    70.0615 H            3 VAL209   0.0000
    48 HG22       -22.5075    26.1582    68.6676 H            3 VAL209   0.0000
    49 HG23       -20.9932    26.5961    69.0943 H            3 VAL209   0.0000
    50 N          -24.1800    30.5710    69.4050 N.am         4 ILE210   0.0000
    51 CA         -24.7930    31.7560    69.9970 C.3          4 ILE210   0.0000
    52 C          -26.1230    31.4590    70.6860 C.2          4 ILE210   0.0000
    53 O          -26.7620    32.3620    71.2220 O.2          4 ILE210   0.0000
    54 CB         -25.0090    32.8540    68.9270 C.3          4 ILE210   0.0000
    55 CG1        -25.9250    32.3310    67.8180 C.3          4 ILE210   0.0000
    56 CG2        -23.6740    33.2700    68.3330 C.3          4 ILE210   0.0000
    57 CD1        -26.2830    33.3670    66.7840 C.3          4 ILE210   0.0000
    58 H28        -24.5830    30.1695    68.5826 H            4 ILE210   0.0000
    59 H29        -24.1637    32.1167    70.6853 H            4 ILE210   0.0000
    60 H30        -25.4373    33.6490    69.3566 H            4 ILE210   0.0000
    61 H31        -26.7700    31.9995    68.2375 H            4 ILE210   0.0000
    62 H32        -25.4618    31.5736    67.3578 H            4 ILE210   0.0000
    63 H33        -23.8224    33.9788    67.6434 H            4 ILE210   0.0000
    64 H34        -23.0840    33.6275    69.0569 H            4 ILE210   0.0000
    65 H35        -23.2369    32.4775    67.9077 H            4 ILE210   0.0000
    66 HD11       -26.8801    32.9572    66.0944 H            4 ILE210   0.0000
    67 HD12       -26.7573    34.1286    67.2255 H            4 ILE210   0.0000
    68 HD13       -25.4491    33.7027    66.3459 H            4 ILE210   0.0000
    69 N          -26.5260    30.1910    70.6780 N.am         5 LEU211   0.0000
    70 CA         -27.7790    29.7660    71.3080 C.3          5 LEU211   0.0000
    71 C          -27.6350    28.4000    72.0010 C.2          5 LEU211   0.0000
    72 O          -28.3000    28.1850    73.0370 O.co2        5 LEU211   0.0000
    73 CB         -28.9060    29.7150    70.2640 C.3          5 LEU211   0.0000
    74 CG         -29.3480    31.0690    69.6910 C.3          5 LEU211   0.0000
    75 CD1        -30.2960    30.8590    68.5210 C.3          5 LEU211   0.0000
    76 CD2        -30.0140    31.8900    70.7850 C.3          5 LEU211   0.0000
    77 OXT        -26.8690    27.5500    71.4940 O.co2        5 LEU211  -1.0000
    78 H39        -25.9548    29.5051    70.2271 H            5 LEU211   0.0000
    79 H40        -28.0256    30.4434    72.0010 H            5 LEU211   0.0000
    80 H41        -29.7024    29.2887    70.6929 H            5 LEU211   0.0000
    81 H42        -28.5934    29.1470    69.5026 H            5 LEU211   0.0000
    82 HG         -28.5399    31.5605    69.3664 H            5 LEU211   0.0000
    83 H44        -30.5770    31.7467    68.1562 H            5 LEU211   0.0000
    84 H45        -29.8321    30.3364    67.8057 H            5 LEU211   0.0000
    85 H46        -31.1024    30.3558    68.8316 H            5 LEU211   0.0000
    86 HD21       -30.3018    32.7719    70.4115 H            5 LEU211   0.0000
    87 HD22       -30.8127    31.3981    71.1315 H            5 LEU211   0.0000
    88 HD23       -29.3652    32.0397    71.5311 H            5 LEU211   0.0000
    89 H50        -16.0553    26.0990    64.8862 H            5 LEU211   0.0000
@<TRIPOS>BOND
     1    1    2       1
     2    2    5       1
     3    2    3       1
     4    5    6       1
     5    6    7       1
     6    7    8       1
     7    8    9       1
     8    3    4       2
     9    1   10       1
    10    1   11       1
    11    2   12       1
    12    3   24      am
    13    5   13       1
    14    5   14       1
    15    6   15       1
    16    6   16       1
    17    7   17       1
    18    7   18       1
    19    8   19       1
    20    8   20       1
    21    9   21       1
    22    9   22       1
    23    9   23       1
    24   24   25       1
    25   25   28       1
    26   25   26       1
    27   28   29       1
    28   26   27       2
    29    1   89       1
    30   24   30       1
    31   25   31       1
    32   26   34      am
    33   28   32       1
    34   28   33       1
    35   34   35       1
    36   35   38       1
    37   35   36       1
    38   38   39       1
    39   38   40       1
    40   36   37       2
    41   40   49       1
    42   34   41       1
    43   35   42       1
    44   36   50      am
    45   38   43       1
    46   39   44       1
    47   39   45       1
    48   39   46       1
    49   40   47       1
    50   40   48       1
    51   50   51       1
    52   51   54       1
    53   51   52       1
    54   54   56       1
    55   54   55       1
    56   55   57       1
    57   52   53       2
    58   57   68       1
    59   50   58       1
    60   51   59       1
    61   52   69      am
    62   54   60       1
    63   55   61       1
    64   55   62       1
    65   56   63       1
    66   56   64       1
    67   56   65       1
    68   57   66       1
    69   57   67       1
    70   69   70       1
    71   70   73       1
    72   70   71       1
    73   73   74       1
    74   74   75       1
    75   74   76       1
    76   71   72      ar
    77   71   77      ar
    78   76   88       1
    79   69   78       1
    80   70   79       1
    81   73   80       1
    82   73   81       1
    83   74   82       1
    84   75   83       1
    85   75   84       1
    86   75   85       1
    87   76   86       1
    88   76   87       1
@<TRIPOS>SUBSTRUCTURE
     1 LYS207      1 RESIDUE           4 N     LYS     0 **** LYS N 207
     2 CYS208     24 RESIDUE           4 N     CYS     0 **** CYS N 208
     3 VAL209     34 RESIDUE           4 N     VAL     0 **** VAL N 209
     4 ILE210     50 RESIDUE           4 N     ILE     0 **** ILE N 210
     5 LEU211     69 RESIDUE           4 N     LEU     0 **** LEU N 211
