@<TRIPOS>MOLECULE
2wsi_FAD_1_ligand
   84    89     1     0     0
SMALL
NO_CHARGES


@<TRIPOS>ATOM
     1 PA          23.1310    19.6920    19.9690 P.3          1 FAD2762   0.0000
     2 O1A         23.1130    19.8600    18.4740 O.co2        1 FAD2762   0.0000
     3 O2A         24.5050    19.9470    20.5260 O.co2        1 FAD2762  -1.0000
     4 O5B         21.9970    20.5670    20.7300 O.3          1 FAD2762   0.0000
     5 C5B         21.6620    20.2240    22.0620 C.3          1 FAD2762   0.0000
     6 C4B         21.2740    21.5030    22.8110 C.3          1 FAD2762   0.0000
     7 O4B         22.4330    22.2180    23.1510 O.3          1 FAD2762   0.0000
     8 C3B         20.4470    22.4350    21.9470 C.3          1 FAD2762   0.0000
     9 O3B         19.0730    22.1600    22.0540 O.3          1 FAD2762   0.0000
    10 C2B         20.7970    23.7920    22.5290 C.3          1 FAD2762   0.0000
    11 O2B         20.0060    24.0620    23.6670 O.3          1 FAD2762   0.0000
    12 C1B         22.2300    23.6050    22.9530 C.3          1 FAD2762   0.0000
    13 N9A         23.1010    24.0610    21.8580 N.pl3        1 FAD2762   0.0000
    14 C8A         23.6710    23.3180    20.8550 C.2          1 FAD2762   0.0000
    15 N7A         24.4170    24.1420    20.0700 N.2          1 FAD2762   0.0000
    16 C5A         24.2970    25.4020    20.5640 C.ar         1 FAD2762   0.0000
    17 C6A         24.8150    26.6180    20.1680 C.ar         1 FAD2762   0.0000
    18 N6A         25.6270    26.7440    19.1020 N.pl3        1 FAD2762   0.0000
    19 N1A         24.5190    27.7200    20.9160 N.ar         1 FAD2762   0.0000
    20 C2A         23.7150    27.6550    22.0350 C.ar         1 FAD2762   0.0000
    21 N3A         23.1690    26.4470    22.4030 N.ar         1 FAD2762   0.0000
    22 C4A         23.4910    25.3470    21.6880 C.ar         1 FAD2762   0.0000
    23 N1          28.4680    16.9490    27.2680 N.2          1 FAD2762   0.0000
    24 C2          29.0800    16.1930    28.2340 C.2          1 FAD2762   0.0000
    25 O2          29.5470    15.0890    27.9530 O.2          1 FAD2762   0.0000
    26 N3          29.1780    16.6660    29.5190 N.pl3        1 FAD2762   0.0000
    27 C4          28.6710    17.9030    29.8530 C.2          1 FAD2762   0.0000
    28 O4          28.7850    18.2610    31.0300 O.2          1 FAD2762   0.0000
    29 C4X         28.0470    18.6800    28.8720 C.2          1 FAD2762   0.0000
    30 N5          27.5160    19.9340    29.1620 N.2          1 FAD2762   0.0000
    31 C5X         26.8950    20.6820    28.1810 C.ar         1 FAD2762   0.0000
    32 C6          26.3600    21.9400    28.4610 C.ar         1 FAD2762   0.0000
    33 C7          25.7650    22.6880    27.4410 C.ar         1 FAD2762   0.0000
    34 C7M         25.1910    24.0500    27.7070 C.3          1 FAD2762   0.0000
    35 C8          25.6930    22.1640    26.1570 C.ar         1 FAD2762   0.0000
    36 C8M         25.0340    22.9420    25.0570 C.3          1 FAD2762   0.0000
    37 C9          26.2150    20.9120    25.8870 C.ar         1 FAD2762   0.0000
    38 C9A         26.8240    20.1750    26.8830 C.ar         1 FAD2762   0.0000
    39 N10         27.3520    18.9360    26.5800 N.pl3        1 FAD2762   0.0000
    40 C10         27.9390    18.1830    27.5770 C.2          1 FAD2762   0.0000
    41 C1'         27.2320    18.3950    25.1810 C.3          1 FAD2762   0.0000
    42 C2'         25.9060    17.6210    25.0150 C.3          1 FAD2762   0.0000
    43 O2'         25.6930    16.6500    26.0120 O.3          1 FAD2762   0.0000
    44 C3'         25.7760    16.9510    23.6500 C.3          1 FAD2762   0.0000
    45 O3'         26.6570    15.8560    23.5850 O.3          1 FAD2762   0.0000
    46 C4'         26.0850    17.9310    22.5340 C.3          1 FAD2762   0.0000
    47 O4'         25.3830    19.1390    22.7410 O.3          1 FAD2762   0.0000
    48 C5'         25.6590    17.3550    21.1830 C.3          1 FAD2762   0.0000
    49 O5'         24.3910    16.7410    21.3200 O.3          1 FAD2762   0.0000
    50 P           23.2690    16.8970    20.1740 P.3          1 FAD2762   0.0000
    51 O1P         23.9330    16.8930    18.8170 O.co2        1 FAD2762   0.0000
    52 O2P         22.1850    15.8600    20.3620 O.co2        1 FAD2762  -1.0000
    53 O3P         22.5190    18.2880    20.3910 O.3          1 FAD2762   0.0000
    54 H5B1        22.4486    19.7973    22.5083 H            1 FAD2762   0.0000
    55 H5B2        20.8919    19.5861    22.0625 H            1 FAD2762   0.0000
    56 H4B         20.7653    21.2690    23.6396 H            1 FAD2762   0.0000
    57 H3B         20.7407    22.3785    20.9928 H            1 FAD2762   0.0000
    58 H5          18.9417    21.1874    22.2458 H            1 FAD2762   0.0000
    59 H2B         20.7105    24.5159    21.8445 H            1 FAD2762   0.0000
    60 H7          20.5177    24.6452    24.2979 H            1 FAD2762   0.0000
    61 H1B         22.4203    24.1142    23.7924 H            1 FAD2762   0.0000
    62 H8A         23.5570    22.3334    20.7227 H            1 FAD2762   0.0000
    63 H6A1        25.9819    27.6436    18.8473 H            1 FAD2762   0.0000
    64 H6A2        25.8754    25.9381    18.5647 H            1 FAD2762   0.0000
    65 H2A         23.5309    28.4775    22.5732 H            1 FAD2762   0.0000
    66 H13         29.6217    16.1073    30.2197 H            1 FAD2762   0.0000
    67 H14         26.4022    22.3061    29.3906 H            1 FAD2762   0.0000
    68 H7M1        24.8128    24.4236    26.8600 H            1 FAD2762   0.0000
    69 H7M2        24.4664    23.9783    28.3924 H            1 FAD2762   0.0000
    70 H7M3        25.9115    24.6551    28.0457 H            1 FAD2762   0.0000
    71 H8M1        25.0734    22.4164    24.2072 H            1 FAD2762   0.0000
    72 H8M2        24.0790    23.1158    25.2975 H            1 FAD2762   0.0000
    73 H8M3        25.5102    23.8125    24.9329 H            1 FAD2762   0.0000
    74 H21         26.1507    20.5372    24.9621 H            1 FAD2762   0.0000
    75 H1'1        27.9982    17.7787    24.9992 H            1 FAD2762   0.0000
    76 H1'2        27.2537    19.1546    24.5310 H            1 FAD2762   0.0000
    77 H2'         25.1640    18.2874    25.0886 H            1 FAD2762   0.0000
    78 H25         24.8217    16.1880    25.8466 H            1 FAD2762   0.0000
    79 H3'         24.8389    16.6197    23.5398 H            1 FAD2762   0.0000
    80 H27         26.2761    15.1572    22.9796 H            1 FAD2762   0.0000
    81 H4'         27.0674    18.1173    22.5195 H            1 FAD2762   0.0000
    82 H29         25.1795    19.5618    21.8579 H            1 FAD2762   0.0000
    83 H5'1        26.3289    16.6762    20.8822 H            1 FAD2762   0.0000
    84 H5'2        25.6036    18.0906    20.5079 H            1 FAD2762   0.0000
@<TRIPOS>BOND
     1    1    2      ar
     2    1    3      ar
     3    1    4       1
     4    1   53       1
     5    4    5       1
     6    5    6       1
     7    6    7       1
     8    6    8       1
     9    7   12       1
    10    8    9       1
    11    8   10       1
    12   10   11       1
    13   10   12       1
    14   12   13       1
    15   13   14       1
    16   13   22       1
    17   14   15       2
    18   15   16       1
    19   16   17      ar
    20   16   22      ar
    21   17   18       1
    22   17   19      ar
    23   19   20      ar
    24   20   21      ar
    25   21   22      ar
    26   23   24       1
    27   23   40       2
    28   24   25       2
    29   24   26       1
    30   26   27       1
    31   27   28       2
    32   27   29       1
    33   29   30       2
    34   29   40       1
    35   30   31       1
    36   31   32      ar
    37   31   38      ar
    38   32   33      ar
    39   33   34       1
    40   33   35      ar
    41   35   36       1
    42   35   37      ar
    43   37   38      ar
    44   38   39       1
    45   39   40       1
    46   39   41       1
    47   41   42       1
    48   42   43       1
    49   42   44       1
    50   44   45       1
    51   44   46       1
    52   46   47       1
    53   46   48       1
    54   48   49       1
    55   49   50       1
    56   50   51      ar
    57   50   52      ar
    58   50   53       1
    59   48   84       1
    60    5   54       1
    61    5   55       1
    62    6   56       1
    63    8   57       1
    64    9   58       1
    65   10   59       1
    66   11   60       1
    67   12   61       1
    68   14   62       1
    69   18   63       1
    70   18   64       1
    71   20   65       1
    72   26   66       1
    73   32   67       1
    74   34   68       1
    75   34   69       1
    76   34   70       1
    77   36   71       1
    78   36   72       1
    79   36   73       1
    80   37   74       1
    81   41   75       1
    82   41   76       1
    83   42   77       1
    84   43   78       1
    85   44   79       1
    86   45   80       1
    87   46   81       1
    88   47   82       1
    89   48   83       1
@<TRIPOS>SUBSTRUCTURE
     1 FAD2762     1 GROUP             4 A     FAD     0 **** FAD A2762
