@<TRIPOS>MOLECULE
1ng9_ADP_1_ligand
   39    41     1     0     0
SMALL
NO_CHARGES


@<TRIPOS>ATOM
     1 PB          -0.2860    45.8350     7.8210 P.3          1 ADP2001   0.0000
     2 O1B         -1.4580    45.9760     6.9330 O.co2        1 ADP2001   0.0000
     3 O2B          0.3100    44.4170     7.8540 O.co2        1 ADP2001  -1.0000
     4 O3B          0.8250    46.7230     7.2510 O.co2        1 ADP2001  -1.0000
     5 PA          -0.5410    45.2880    10.5710 P.3          1 ADP2001   0.0000
     6 O1A          0.8610    44.8030    10.5220 O.co2        1 ADP2001   0.0000
     7 O2A         -1.5400    44.1250    10.6380 O.co2        1 ADP2001  -1.0000
     8 O3A         -0.8290    46.2140     9.2890 O.3          1 ADP2001   0.0000
     9 O5'         -0.8270    46.1960    11.8720 O.3          1 ADP2001   0.0000
    10 C5'          0.1180    47.1490    12.3160 C.3          1 ADP2001   0.0000
    11 C4'         -0.1750    47.5630    13.7490 C.3          1 ADP2001   0.0000
    12 O4'         -1.5360    47.8870    13.8980 O.3          1 ADP2001   0.0000
    13 C3'          0.1340    46.4630    14.7440 C.3          1 ADP2001   0.0000
    14 O3'          1.3740    46.7380    15.3500 O.3          1 ADP2001   0.0000
    15 C2'         -1.0060    46.4910    15.7340 C.3          1 ADP2001   0.0000
    16 O2'         -0.5460    46.9130    17.0010 O.3          1 ADP2001   0.0000
    17 C1'         -2.0290    47.4510    15.1400 C.3          1 ADP2001   0.0000
    18 N9          -3.3120    46.7780    14.8980 N.pl3        1 ADP2001   0.0000
    19 C8          -3.5860    45.8440    13.9270 C.2          1 ADP2001   0.0000
    20 N7          -4.8790    45.4530    14.0250 N.2          1 ADP2001   0.0000
    21 C5          -5.4290    46.1230    15.0530 C.ar         1 ADP2001   0.0000
    22 C6          -6.6970    46.1010    15.5950 C.ar         1 ADP2001   0.0000
    23 N6          -7.6740    45.5160    14.9250 N.pl3        1 ADP2001   0.0000
    24 N1          -6.9850    46.9240    16.6730 N.ar         1 ADP2001   0.0000
    25 C2          -6.0210    47.7600    17.2220 C.ar         1 ADP2001   0.0000
    26 N3          -4.7490    47.7710    16.6770 N.ar         1 ADP2001   0.0000
    27 C4          -4.4630    46.9650    15.6130 C.ar         1 ADP2001   0.0000
    28 H5'1         0.0749    47.9548    11.7254 H            1 ADP2001   0.0000
    29 H5'2         1.0339    46.7503    12.2695 H            1 ADP2001   0.0000
    30 H4'          0.3759    48.3669    13.9732 H            1 ADP2001   0.0000
    31 H3'          0.1659    45.5777    14.2801 H            1 ADP2001   0.0000
    32 H5           2.0087    45.9875    15.1659 H            1 ADP2001   0.0000
    33 H2'         -1.4071    45.5781    15.8097 H            1 ADP2001   0.0000
    34 H7           0.4356    47.0984    16.9545 H            1 ADP2001   0.0000
    35 H1'         -2.1611    48.2322    15.7501 H            1 ADP2001   0.0000
    36 H9          -2.9309    45.5052    13.2517 H            1 ADP2001   0.0000
    37 H10         -8.5981    45.4930    15.3066 H            1 ADP2001   0.0000
    38 H11         -7.4894    45.0963    14.0363 H            1 ADP2001   0.0000
    39 H12         -6.2433    48.3463    18.0010 H            1 ADP2001   0.0000
@<TRIPOS>BOND
     1    1    2      ar
     2    1    3      ar
     3    1    4      ar
     4    1    8       1
     5    5    6      ar
     6    5    7      ar
     7    5    8       1
     8    5    9       1
     9    9   10       1
    10   10   11       1
    11   11   12       1
    12   11   13       1
    13   12   17       1
    14   13   14       1
    15   13   15       1
    16   15   16       1
    17   15   17       1
    18   17   18       1
    19   18   19       1
    20   18   27       1
    21   19   20       2
    22   20   21       1
    23   21   22      ar
    24   21   27      ar
    25   22   23       1
    26   22   24      ar
    27   24   25      ar
    28   25   26      ar
    29   26   27      ar
    30   25   39       1
    31   23   38       1
    32   23   37       1
    33   10   28       1
    34   10   29       1
    35   11   30       1
    36   13   31       1
    37   14   32       1
    38   15   33       1
    39   16   34       1
    40   17   35       1
    41   19   36       1
@<TRIPOS>SUBSTRUCTURE
     1 ADP2001     1 GROUP             4 A     ADP     0 **** ADP A2001
