@<TRIPOS>MOLECULE
4hs4_FMN_2_ligand
   50    52     1     0     0
SMALL
NO_CHARGES


@<TRIPOS>ATOM
     1 N1         -55.7650    21.7790    61.6590 N.2          1 FMN201   0.0000
     2 C2         -55.9010    23.1200    61.9460 C.2          1 FMN201   0.0000
     3 O2         -55.6640    23.9590    61.0710 O.2          1 FMN201   0.0000
     4 N3         -56.3010    23.5120    63.2120 N.pl3        1 FMN201   0.0000
     5 C4         -56.5720    22.5740    64.1920 C.2          1 FMN201   0.0000
     6 O4         -56.9230    22.9480    65.3130 O.2          1 FMN201   0.0000
     7 C4A        -56.4440    21.2130    63.8980 C.2          1 FMN201   0.0000
     8 N5         -56.7150    20.2320    64.8450 N.2          1 FMN201   0.0000
     9 C5A        -56.5640    18.8860    64.5450 C.ar         1 FMN201   0.0000
    10 C6         -56.8140    17.8970    65.5050 C.ar         1 FMN201   0.0000
    11 C7         -56.6560    16.5470    65.1830 C.ar         1 FMN201   0.0000
    12 C7M        -56.9280    15.4810    66.2090 C.3          1 FMN201   0.0000
    13 C8         -56.2510    16.1950    63.8970 C.ar         1 FMN201   0.0000
    14 C8M        -56.0780    14.7600    63.5210 C.3          1 FMN201   0.0000
    15 C9         -55.9980    17.1770    62.9410 C.ar         1 FMN201   0.0000
    16 C9A        -56.1520    18.5210    63.2640 C.ar         1 FMN201   0.0000
    17 N10        -55.8850    19.4950    62.3180 N.pl3        1 FMN201   0.0000
    18 C10        -56.0300    20.8300    62.6240 C.2          1 FMN201   0.0000
    19 C1'        -55.4720    19.1110    60.9330 C.3          1 FMN201   0.0000
    20 C2'        -53.9740    19.0730    60.7510 C.3          1 FMN201   0.0000
    21 O2'        -53.5140    20.3970    60.6280 O.3          1 FMN201   0.0000
    22 C3'        -53.6970    18.2880    59.4750 C.3          1 FMN201   0.0000
    23 O3'        -54.2140    16.9740    59.6230 O.3          1 FMN201   0.0000
    24 C4'        -52.2010    18.2200    59.2220 C.3          1 FMN201   0.0000
    25 O4'        -51.9650    17.7990    57.8950 O.3          1 FMN201   0.0000
    26 C5'        -51.5840    17.2390    60.2140 C.3          1 FMN201   0.0000
    27 O5'        -50.1860    17.3860    60.1670 O.3          1 FMN201   0.0000
    28 P          -49.3300    16.2480    59.4290 P.3          1 FMN201   0.0000
    29 O1P        -49.7250    16.2990    57.9670 O.co2        1 FMN201   0.0000
    30 O2P        -47.8590    16.5660    59.5880 O.co2        1 FMN201  -1.0000
    31 O3P        -49.6450    14.9020    60.0210 O.co2        1 FMN201  -1.0000
    32 H1         -56.3952    24.4854    63.4207 H            1 FMN201   0.0000
    33 H2         -57.1068    18.1585    66.4247 H            1 FMN201   0.0000
    34 H7M1       -56.7642    14.5807    65.8057 H            1 FMN201   0.0000
    35 H7M2       -56.3211    15.6104    66.9931 H            1 FMN201   0.0000
    36 H7M3       -57.8795    15.5432    66.5101 H            1 FMN201   0.0000
    37 H8M1       -55.7856    14.6984    62.5667 H            1 FMN201   0.0000
    38 H8M2       -55.3856    14.3424    64.1094 H            1 FMN201   0.0000
    39 H8M3       -56.9469    14.2784    63.6352 H            1 FMN201   0.0000
    40 H9         -55.7053    16.9149    62.0214 H            1 FMN201   0.0000
    41 H1'1       -55.8538    19.7760    60.2911 H            1 FMN201   0.0000
    42 H1'2       -55.8403    18.2035    60.7312 H            1 FMN201   0.0000
    43 H2'        -53.5407    18.6266    61.5339 H            1 FMN201   0.0000
    44 H13        -54.2886    21.0263    60.6915 H            1 FMN201   0.0000
    45 H3'        -54.1457    18.7378    58.7028 H            1 FMN201   0.0000
    46 H15        -54.4898    16.6216    58.7287 H            1 FMN201   0.0000
    47 H4'        -51.8001    19.1259    59.3587 H            1 FMN201   0.0000
    48 H17        -51.1005    17.2981    57.8530 H            1 FMN201   0.0000
    49 H5'1       -51.8344    16.3035    59.9649 H            1 FMN201   0.0000
    50 H5'2       -51.9143    17.4381    61.1366 H            1 FMN201   0.0000
@<TRIPOS>BOND
     1    1    2       1
     2    1   18       2
     3    2    3       2
     4    2    4       1
     5    4    5       1
     6    5    6       2
     7    5    7       1
     8    7    8       2
     9    7   18       1
    10    8    9       1
    11    9   10      ar
    12    9   16      ar
    13   10   11      ar
    14   11   12       1
    15   11   13      ar
    16   13   14       1
    17   13   15      ar
    18   15   16      ar
    19   16   17       1
    20   17   18       1
    21   17   19       1
    22   19   20       1
    23   20   21       1
    24   20   22       1
    25   22   23       1
    26   22   24       1
    27   24   25       1
    28   24   26       1
    29   26   27       1
    30   27   28       1
    31   28   29      ar
    32   28   30      ar
    33   28   31      ar
    34    4   32       1
    35   10   33       1
    36   12   34       1
    37   12   35       1
    38   12   36       1
    39   14   37       1
    40   14   38       1
    41   14   39       1
    42   15   40       1
    43   19   41       1
    44   19   42       1
    45   20   43       1
    46   21   44       1
    47   22   45       1
    48   23   46       1
    49   24   47       1
    50   25   48       1
    51   26   49       1
    52   26   50       1
@<TRIPOS>SUBSTRUCTURE
     1 FMN201      1 GROUP             4 C     FMN     0 **** FMN C 201
