@<TRIPOS>MOLECULE
4eaj_ATP_1_ligand
   43    45     1     0     0
SMALL
NO_CHARGES


@<TRIPOS>ATOM
     1 PG         -21.8410     5.7310   -14.8520 P.3          1 ATP401   0.0000
     2 O1G        -20.5710     6.1050   -15.5670 O.co2        1 ATP401   0.0000
     3 O2G        -21.6960     5.5500   -13.3660 O.co2        1 ATP401  -1.0000
     4 O3G        -22.5890     4.6070   -15.5090 O.co2        1 ATP401  -1.0000
     5 PB         -23.8940     7.4500   -13.8940 P.3          1 ATP401   0.0000
     6 O1B        -24.0460     8.9340   -14.0320 O.co2        1 ATP401   0.0000
     7 O2B        -23.4770     6.9120   -12.5730 O.co2        1 ATP401  -1.0000
     8 O3B        -22.8320     6.9950   -15.0140 O.3          1 ATP401   0.0000
     9 PA         -26.1080     5.8150   -13.2870 P.3          1 ATP401   0.0000
    10 O1A        -26.6450     4.6460   -14.0650 O.co2        1 ATP401   0.0000
    11 O2A        -25.2800     5.5550   -12.0660 O.co2        1 ATP401  -1.0000
    12 O3A        -25.2920     6.7710   -14.2970 O.3          1 ATP401   0.0000
    13 O5'        -27.3460     6.7180   -12.8050 O.3          1 ATP401   0.0000
    14 C5'        -27.9270     7.6880   -13.6790 C.3          1 ATP401   0.0000
    15 C4'        -29.3180     8.0470   -13.1710 C.3          1 ATP401   0.0000
    16 O4'        -30.2710     7.1810   -13.7840 O.3          1 ATP401   0.0000
    17 C3'        -29.4100     7.8640   -11.6670 C.3          1 ATP401   0.0000
    18 O3'        -29.9050     9.0570   -11.0560 O.3          1 ATP401   0.0000
    19 C2'        -30.3790     6.7200   -11.4660 C.3          1 ATP401   0.0000
    20 O2'        -31.3350     7.0100   -10.4460 O.3          1 ATP401   0.0000
    21 C1'        -31.0560     6.5050   -12.8080 C.3          1 ATP401   0.0000
    22 N9         -31.0630     5.0490   -13.0820 N.pl3        1 ATP401   0.0000
    23 C8         -29.9760     4.2610   -13.0620 C.2          1 ATP401   0.0000
    24 N7         -30.3120     2.9840   -13.3380 N.2          1 ATP401   0.0000
    25 C5         -31.6400     2.9290   -13.5350 C.ar         1 ATP401   0.0000
    26 C6         -32.6360     1.8820   -13.8590 C.ar         1 ATP401   0.0000
    27 N6         -32.2670     0.5880   -14.0380 N.pl3        1 ATP401   0.0000
    28 N1         -33.9280     2.2640   -13.9720 N.ar         1 ATP401   0.0000
    29 C2         -34.3180     3.5360   -13.8060 C.ar         1 ATP401   0.0000
    30 N3         -33.4650     4.5290   -13.5100 N.ar         1 ATP401   0.0000
    31 C4         -32.1360     4.2970   -13.3590 C.ar         1 ATP401   0.0000
    32 H5'1       -27.9950     7.3091   -14.6019 H            1 ATP401   0.0000
    33 H5'2       -27.3550     8.5081   -13.6967 H            1 ATP401   0.0000
    34 H4'        -29.5267     8.9961   -13.4069 H            1 ATP401   0.0000
    35 H3'        -28.5136     7.6287   -11.2913 H            1 ATP401   0.0000
    36 H5         -29.9617     8.9258   -10.0663 H            1 ATP401   0.0000
    37 H2'        -29.8701     5.8960   -11.2170 H            1 ATP401   0.0000
    38 H7         -30.8603     7.1756    -9.5816 H            1 ATP401   0.0000
    39 H1'        -31.9886     6.8656   -12.7942 H            1 ATP401   0.0000
    40 H9         -29.0469     4.5767   -12.8694 H            1 ATP401   0.0000
    41 H10        -32.9563    -0.1029   -14.2562 H            1 ATP401   0.0000
    42 H11        -31.3059     0.3256   -13.9516 H            1 ATP401   0.0000
    43 H12        -35.2885     3.7548   -13.9073 H            1 ATP401   0.0000
@<TRIPOS>BOND
     1    1    2      ar
     2    1    3      ar
     3    1    4      ar
     4    1    8       1
     5    5    6      ar
     6    5    7      ar
     7    5    8       1
     8    5   12       1
     9    9   10      ar
    10    9   11      ar
    11    9   12       1
    12    9   13       1
    13   13   14       1
    14   14   15       1
    15   15   16       1
    16   15   17       1
    17   16   21       1
    18   17   18       1
    19   17   19       1
    20   19   20       1
    21   19   21       1
    22   21   22       1
    23   22   23       1
    24   22   31       1
    25   23   24       2
    26   24   25       1
    27   25   26      ar
    28   25   31      ar
    29   26   27       1
    30   26   28      ar
    31   28   29      ar
    32   29   30      ar
    33   30   31      ar
    34   29   43       1
    35   27   42       1
    36   27   41       1
    37   23   40       1
    38   14   32       1
    39   14   33       1
    40   15   34       1
    41   17   35       1
    42   18   36       1
    43   19   37       1
    44   20   38       1
    45   21   39       1
@<TRIPOS>SUBSTRUCTURE
     1 ATP401      1 GROUP             4 C     ATP     0 **** ATP C 401
