@<TRIPOS>MOLECULE
3e6c_3C4_1_ligand
   18    18     1     0     0
SMALL
NO_CHARGES


@<TRIPOS>ATOM
     1 O2           6.0580    45.1520    -7.3620 O.co2        1 3C4604   0.0000
     2 C            5.0660    45.7800    -7.7560 C.2          1 3C4604   0.0000
     3 O1           5.1820    46.6880    -8.6310 O.co2        1 3C4604  -1.0000
     4 CG           3.7410    45.5260    -7.0150 C.3          1 3C4604   0.0000
     5 CA           2.6090    46.4030    -7.3220 C.ar         1 3C4604   0.0000
     6 CD2          1.8840    46.1840    -8.4980 C.ar         1 3C4604   0.0000
     7 CE2          0.9080    46.8900    -8.8150 C.ar         1 3C4604   0.0000
     8 CZ           0.4080    48.0210    -7.9880 C.ar         1 3C4604   0.0000
     9 OH          -0.6930    48.8070    -8.2720 O.3          1 3C4604   0.0000
    10 CL           0.6770    49.3820    -5.6870 Cl           1 3C4604   0.0000
    11 CE1          1.1750    48.1330    -6.7310 C.ar         1 3C4604   0.0000
    12 CD1          2.1900    47.3760    -6.4740 C.ar         1 3C4604   0.0000
    13 HG1          3.9260    45.6092    -6.0358 H            1 3C4604   0.0000
    14 HG2          3.4579    44.5896    -7.2224 H            1 3C4604   0.0000
    15 HD2          2.1580    45.4368    -9.1035 H            1 3C4604   0.0000
    16 HE2          0.4349    46.6854    -9.6719 H            1 3C4604   0.0000
    17 HH          -1.2307    48.6349    -9.0974 H            1 3C4604   0.0000
    18 HD1          2.6862    47.5125    -5.6166 H            1 3C4604   0.0000
@<TRIPOS>BOND
     1    1    2      ar
     2    2    3      ar
     3    2    4       1
     4    4    5       1
     5    5    6      ar
     6    5   12      ar
     7    6    7      ar
     8    7    8      ar
     9    8    9       1
    10    8   11      ar
    11   10   11       1
    12   11   12      ar
    13   12   18       1
    14    4   13       1
    15    4   14       1
    16    6   15       1
    17    7   16       1
    18    9   17       1
@<TRIPOS>SUBSTRUCTURE
     1 3C4604      1 GROUP             4 C     3C4     0 **** 3C4 C 604
