@<TRIPOS>MOLECULE
4kgk_GTP_1_ligand
   44    46     1     0     0
SMALL
NO_CHARGES


@<TRIPOS>ATOM
     1 PG          40.5770   117.3540   -13.4300 P.3          1 GTP301   0.0000
     2 O1G         41.9350   116.9520   -12.9100 O.co2        1 GTP301   0.0000
     3 O2G         39.5110   116.6690   -12.6100 O.co2        1 GTP301  -1.0000
     4 O3G         40.4540   116.9420   -14.8780 O.co2        1 GTP301  -1.0000
     5 O3B         40.4420   118.9530   -13.2760 O.3          1 GTP301   0.0000
     6 PB          40.5780   119.9020   -14.5680 P.3          1 GTP301   0.0000
     7 O1B         41.8710   119.6200   -15.2940 O.co2        1 GTP301   0.0000
     8 O2B         40.4620   121.3610   -14.1970 O.co2        1 GTP301  -1.0000
     9 O3A         39.3310   119.4070   -15.4520 O.3          1 GTP301   0.0000
    10 PA          39.2010   119.7250   -17.0220 P.3          1 GTP301   0.0000
    11 O1A         37.7900   119.4430   -17.4770 O.co2        1 GTP301   0.0000
    12 O2A         40.1940   118.8860   -17.7880 O.co2        1 GTP301  -1.0000
    13 O5'         39.5260   121.2910   -17.2080 O.3          1 GTP301   0.0000
    14 C5'         40.7380   121.7270   -17.7810 C.3          1 GTP301   0.0000
    15 C4'         41.1840   123.0150   -17.1020 C.3          1 GTP301   0.0000
    16 O4'         42.4200   123.4400   -17.6380 O.3          1 GTP301   0.0000
    17 C3'         40.2040   124.1510   -17.3360 C.3          1 GTP301   0.0000
    18 O3'         39.3360   124.2970   -16.2350 O.3          1 GTP301   0.0000
    19 C2'         41.0760   125.3800   -17.4860 C.3          1 GTP301   0.0000
    20 O2'         41.0140   126.1590   -16.3140 O.3          1 GTP301   0.0000
    21 C1'         42.4880   124.8520   -17.6990 C.3          1 GTP301   0.0000
    22 N9          42.9580   125.2690   -19.0330 N.pl3        1 GTP301   0.0000
    23 C8          43.0150   124.4840   -20.1550 C.2          1 GTP301   0.0000
    24 N7          43.5080   125.2240   -21.1740 N.2          1 GTP301   0.0000
    25 C5          43.7760   126.4670   -20.7160 C.2          1 GTP301   0.0000
    26 C6          44.2900   127.6010   -21.3310 C.2          1 GTP301   0.0000
    27 O6          44.5940   127.5780   -22.5220 O.2          1 GTP301   0.0000
    28 N1          44.4590   128.7570   -20.5970 N.2          1 GTP301   0.0000
    29 C2          44.1170   128.7790   -19.2600 C.2          1 GTP301   0.0000
    30 N2          44.2780   129.8920   -18.5490 N.pl3        1 GTP301   0.0000
    31 N3          43.6070   127.6480   -18.6560 N.pl3        1 GTP301   0.0000
    32 C4          43.4380   126.5090   -19.3710 C.2          1 GTP301   0.0000
    33 H5'1        40.6042   121.8939   -18.7579 H            1 GTP301   0.0000
    34 H5'2        41.4381   121.0241   -17.6557 H            1 GTP301   0.0000
    35 H4'         41.2831   122.8571   -16.1195 H            1 GTP301   0.0000
    36 H3'         39.6804   123.9918   -18.1730 H            1 GTP301   0.0000
    37 H5          39.2010   123.4083   -15.7968 H            1 GTP301   0.0000
    38 H2'         40.7839   125.9184   -18.2764 H            1 GTP301   0.0000
    39 H7          40.4068   125.7186   -15.6527 H            1 GTP301   0.0000
    40 H1'         43.1004   125.2014   -16.9898 H            1 GTP301   0.0000
    41 H9          42.7384   123.5246   -20.2108 H            1 GTP301   0.0000
    42 H10         44.0299   129.9068   -17.5804 H            1 GTP301   0.0000
    43 H11         44.6471   130.7137   -18.9832 H            1 GTP301   0.0000
    44 H12         43.3611   127.6688   -17.6869 H            1 GTP301   0.0000
@<TRIPOS>BOND
     1    1    2      ar
     2    1    3      ar
     3    1    4      ar
     4    1    5       1
     5    5    6       1
     6    6    7      ar
     7    6    8      ar
     8    6    9       1
     9    9   10       1
    10   10   11      ar
    11   10   12      ar
    12   10   13       1
    13   13   14       1
    14   14   15       1
    15   15   16       1
    16   15   17       1
    17   16   21       1
    18   17   18       1
    19   17   19       1
    20   19   20       1
    21   19   21       1
    22   21   22       1
    23   22   23       1
    24   22   32       1
    25   23   24       2
    26   24   25       1
    27   25   26       1
    28   25   32       2
    29   26   27       2
    30   26   28       1
    31   28   29       2
    32   29   30       1
    33   29   31       1
    34   31   32       1
    35   30   43       1
    36   30   42       1
    37   21   40       1
    38   23   41       1
    39   14   33       1
    40   14   34       1
    41   15   35       1
    42   17   36       1
    43   18   37       1
    44   19   38       1
    45   20   39       1
    46   31   44       1
@<TRIPOS>SUBSTRUCTURE
     1 GTP301      1 GROUP             4 A     GTP     0 **** GTP A 301
