@<TRIPOS>MOLECULE
./coach420/7est/ligand.pdb
 34 33 0 0 0
SMALL
GASTEIGER

@<TRIPOS>ATOM
      1  C1        11.3220   52.0910   -0.1060 C.2     1  0Z21        0.3371
      2  C2        11.0210   53.2990   -0.9960 C.3     1  0Z21        0.4711
      3  O         11.5020   52.2080    1.1130 O.2     1  0Z21       -0.2642
      4  F1        12.1200   54.0630   -1.1070 F       1  0Z21       -0.1620
      5  F2        10.6620   52.9380   -2.2440 F       1  0Z21       -0.1620
      6  F3         9.9630   54.0510   -0.6230 F       1  0Z21       -0.1620
      7  N         11.4430   50.9070   -0.7140 N.am    1  0Z21       -0.1907
      8  CA        11.6980   49.6330   -0.0510 C.3     1  0Z21        0.1730
      9  C         13.2150   49.4870    0.1250 C.2     1  0Z21        0.2616
     10  O1        13.9520   49.9040   -0.7710 O.2     1  0Z21       -0.2715
     11  CB        11.0950   48.5890   -1.0110 C.3     1  0Z21        0.0311
     12  CG        10.8480   47.0820   -0.8120 C.3     1  0Z21        0.0022
     13  CD1       12.1080   46.2530   -0.9150 C.3     1  0Z21        0.0001
     14  CD2       10.0890   46.7840    0.4540 C.3     1  0Z21        0.0001
     15  N1        13.7410   48.9620    1.2430 N.am    1  0Z21       -0.1963
     16  CA1       15.1670   48.6700    1.3540 C.3     1  0Z21        0.1732
     17  C3        15.5170   47.3760    0.6080 C.2     1  0Z21        0.2654
     18  O2        15.2300   46.2440    1.0590 O.2     1  0Z21       -0.2711
     19  CB1       15.6110   48.5430    2.8120 C.3     1  0Z21        0.0334
     20  N2        16.2080   47.6510   -0.5230 N.am    1  0Z21       -0.1778
     21  C11       16.4890   46.7060   -1.4670 C.ar    1  0Z21        0.0734
     22  C21       15.8310   45.4980   -1.5710 C.ar    1  0Z21        0.0165
     23  C31       16.2060   44.6300   -2.5670 C.ar    1  0Z21        0.0052
     24  C4        17.2440   44.9480   -3.4250 C.ar    1  0Z21        0.0715
     25  C5        17.8920   46.1620   -3.3180 C.ar    1  0Z21        0.0052
     26  C6        17.5110   47.0470   -2.3320 C.ar    1  0Z21        0.0165
     27  C7        17.6070   43.9260   -4.4830 C.3     1  0Z21        0.4186
     28  F11       17.5850   42.7110   -3.9090 F       1  0Z21       -0.1659
     29  F21       18.8270   44.0840   -5.0420 F       1  0Z21       -0.1659
     30  F31       16.6820   43.9680   -5.4670 F       1  0Z21       -0.1659
     31  C2        -3.8740   68.4940   -1.0120 C.3     9  DMF9        0.1390
     32  C         -1.4370   68.1800   -0.9050 C.2     9  DMF9        0.3202
     33  O         -0.9830   68.2510    0.2460 O.2     9  DMF9       -0.2633
     34  N         -2.6400   67.6920   -1.2240 N.am    9  DMF9       -0.1959
@<TRIPOS>BOND
     1     1     2    1
     2     1     7   am
     3     1     3    2
     4     2     5    1
     5     2     4    1
     6     2     6    1
     7     7     8    1
     8     8    11    1
     9     8     9    1
    10     9    10    2
    11     9    15   am
    12    11    12    1
    13    12    13    1
    14    12    14    1
    15    15    16    1
    16    16    17    1
    17    16    19    1
    18    17    20   am
    19    17    18    2
    20    20    21    1
    21    21    26   ar
    22    21    22   ar
    23    22    23   ar
    24    23    24   ar
    25    24    27    1
    26    24    25   ar
    27    25    26   ar
    28    27    30    1
    29    27    29    1
    30    27    28    1
    31    31    34    1
    32    32    34   am
    33    32    33    2
