@<TRIPOS>MOLECULE
3hyx_PS9_4_ligand
    8     8     1     0     0
SMALL
NO_CHARGES


@<TRIPOS>ATOM
     1 S2          27.8180   135.1530   148.7930 S.3          1 PS9800   0.0000
     2 S3          28.4500   135.5660   146.9300 S.3          1 PS9800   0.0000
     3 S4          30.3170   134.9180   146.6030 S.3          1 PS9800   0.0000
     4 S5          30.3330   133.1700   145.6190 S.3          1 PS9800   0.0000
     5 S6          29.9380   131.6440   146.8560 S.3          1 PS9800   0.0000
     6 S7          28.0300   131.0570   146.6660 S.3          1 PS9800   0.0000
     7 S8          26.7530   132.5660   147.0240 S.3          1 PS9800   0.0000
     8 S9          27.0060   133.3200   148.8650 S.3          1 PS9800   0.0000
@<TRIPOS>BOND
     1    1    2       1
     2    1    8       1
     3    2    3       1
     4    3    4       1
     5    4    5       1
     6    5    6       1
     7    6    7       1
     8    7    8       1
@<TRIPOS>SUBSTRUCTURE
     1 PS9800      1 GROUP             4 D     PS9     0 **** PS9 D 800
