@<TRIPOS>MOLECULE
5byu_COA_1_ligand
   80    82     1     0     0
SMALL
NO_CHARGES


@<TRIPOS>ATOM
     1 N1A          0.9330   -63.0580    -6.0800 N.ar         1 COA201   0.0000
     2 C2A         -0.4030   -63.0210    -6.0940 C.ar         1 COA201   0.0000
     3 N3A         -1.0540   -61.8270    -6.0200 N.ar         1 COA201   0.0000
     4 C4A         -0.3620   -60.6580    -5.9320 C.ar         1 COA201   0.0000
     5 C5A          1.0450   -60.6990    -5.9180 C.ar         1 COA201   0.0000
     6 C6A          1.6700   -61.9250    -5.9940 C.ar         1 COA201   0.0000
     7 N6A          3.0760   -62.0010    -5.9830 N.pl3        1 COA201   0.0000
     8 N7A          1.4780   -59.4330    -5.8260 N.2          1 COA201   0.0000
     9 C8A          0.4330   -58.6050    -5.7810 C.2          1 COA201   0.0000
    10 N9A         -0.7080   -59.3030    -5.8460 N.pl3        1 COA201   0.0000
    11 C1B         -2.0060   -58.7570    -5.8180 C.3          1 COA201   0.0000
    12 C2B         -2.1630   -57.9020    -4.6250 C.3          1 COA201   0.0000
    13 O2B         -2.7410   -58.6720    -3.5340 O.3          1 COA201   0.0000
    14 C3B         -3.0720   -56.8130    -5.0000 C.3          1 COA201   0.0000
    15 O3B         -4.3810   -57.0710    -4.3930 O.3          1 COA201   0.0000
    16 P3B         -5.2880   -55.8220    -3.9040 P.3          1 COA201   0.0000
    17 O7A         -4.4020   -54.6280    -3.6580 O.co2        1 COA201   0.0000
    18 O8A         -5.9990   -56.2010    -2.6160 O.co2        1 COA201  -1.0000
    19 O9A         -6.3120   -55.4840    -4.9590 O.co2        1 COA201  -1.0000
    20 C4B         -3.1910   -56.8310    -6.4530 C.3          1 COA201   0.0000
    21 O4B         -2.2530   -57.8910    -6.9860 O.3          1 COA201   0.0000
    22 C5B         -2.8550   -55.4860    -7.0490 C.3          1 COA201   0.0000
    23 O5B         -1.5090   -55.4710    -7.4910 O.3          1 COA201   0.0000
    24 P1A         -0.4990   -54.4690    -6.7730 P.3          1 COA201   0.0000
    25 O1A          0.9260   -54.9560    -6.9770 O.co2        1 COA201   0.0000
    26 O2A         -0.8130   -54.4370    -5.2840 O.co2        1 COA201  -1.0000
    27 O3A         -0.6530   -52.9770    -7.3780 O.3          1 COA201   0.0000
    28 P2A          0.2100   -52.4170    -8.6140 P.3          1 COA201   0.0000
    29 O4A          1.6760   -52.4550    -8.2720 O.co2        1 COA201   0.0000
    30 O5A         -0.1930   -50.9960    -8.9270 O.co2        1 COA201  -1.0000
    31 O6A         -0.0640   -53.3450    -9.9070 O.3          1 COA201   0.0000
    32 CBP          0.6670   -54.8130   -11.6820 C.3          1 COA201   0.0000
    33 CCP          0.8490   -54.4310   -10.1710 C.3          1 COA201   0.0000
    34 CDP         -0.8100   -55.2620   -11.8910 C.3          1 COA201   0.0000
    35 CEP          0.9580   -53.5630   -12.5250 C.3          1 COA201   0.0000
    36 CAP          1.6450   -55.9530   -12.0570 C.3          1 COA201   0.0000
    37 OAP          1.2350   -57.1340   -11.4480 O.3          1 COA201   0.0000
    38 C9P          1.6730   -56.1440   -13.5600 C.2          1 COA201   0.0000
    39 O9P          2.5800   -55.6950   -14.2410 O.2          1 COA201   0.0000
    40 N8P          0.6060   -56.8750   -14.2030 N.am         1 COA201   0.0000
    41 C7P          0.6300   -57.0570   -15.6390 C.3          1 COA201   0.0000
    42 C6P         -0.1640   -58.3430   -15.9340 C.3          1 COA201   0.0000
    43 C5P          0.6590   -59.2400   -16.9000 C.2          1 COA201   0.0000
    44 O5P          1.8690   -59.2050   -16.8780 O.2          1 COA201   0.0000
    45 N4P         -0.0490   -60.0980   -17.8170 N.am         1 COA201   0.0000
    46 C3P         -1.4980   -60.0920   -17.7930 C.3          1 COA201   0.0000
    47 C2P         -2.0440   -60.4280   -19.1810 C.3          1 COA201   0.0000
    48 S1P         -2.0770   -58.9740   -20.1790 S.3          1 COA201   0.0000
    49 H2A         -0.9253   -63.8713    -6.1589 H            1 COA201   0.0000
    50 H6A1         3.6214   -61.1652    -5.9195 H            1 COA201   0.0000
    51 H6A2         3.5291   -62.8907    -6.0386 H            1 COA201   0.0000
    52 H8A          0.4929   -57.6094    -5.7093 H            1 COA201   0.0000
    53 H1B         -2.6815   -59.4941    -5.7959 H            1 COA201   0.0000
    54 H2B         -1.2764   -57.5298    -4.3504 H            1 COA201   0.0000
    55 H7          -3.2803   -58.0670    -2.9481 H            1 COA201   0.0000
    56 H3B         -2.7104   -55.9337    -4.6900 H            1 COA201   0.0000
    57 H4B         -4.1295   -57.0719    -6.7003 H            1 COA201   0.0000
    58 H5B1        -2.9835   -54.7761    -6.3565 H            1 COA201   0.0000
    59 H5B2        -3.4599   -55.3079    -7.8252 H            1 COA201   0.0000
    60 HCP1         0.6312   -55.2141    -9.5885 H            1 COA201   0.0000
    61 HCP2         1.7902   -54.1398    -9.9998 H            1 COA201   0.0000
    62 HDP1        -0.9503   -55.5110   -12.8493 H            1 COA201   0.0000
    63 HDP2        -1.0037   -56.0521   -11.3095 H            1 COA201   0.0000
    64 HDP3        -1.4242   -54.5110   -11.6484 H            1 COA201   0.0000
    65 HEP1         0.8483   -53.7819   -13.4946 H            1 COA201   0.0000
    66 HEP2         0.3200   -52.8352   -12.2733 H            1 COA201   0.0000
    67 HEP3         1.8952   -53.2578   -12.3562 H            1 COA201   0.0000
    68 HAP          2.5630   -55.7185   -11.7372 H            1 COA201   0.0000
    69 H21          1.5047   -57.9124   -12.0148 H            1 COA201   0.0000
    70 H8P         -0.1440   -57.2527   -13.6601 H            1 COA201   0.0000
    71 H7P1         1.5726   -57.1527   -15.9588 H            1 COA201   0.0000
    72 H7P2         0.2018   -56.2756   -16.0929 H            1 COA201   0.0000
    73 H6P1        -1.0377   -58.1067   -16.3593 H            1 COA201   0.0000
    74 H6P2        -0.3314   -58.8362   -15.0803 H            1 COA201   0.0000
    75 H4P          0.4489   -60.6846   -18.4558 H            1 COA201   0.0000
    76 H3P1        -1.8212   -59.1858   -17.5202 H            1 COA201   0.0000
    77 H3P2        -1.8214   -60.7730   -17.1359 H            1 COA201   0.0000
    78 H2P1        -2.9714   -60.7917   -19.0937 H            1 COA201   0.0000
    79 H2P2        -1.4565   -61.1130   -19.6118 H            1 COA201   0.0000
    80 H1P         -2.4348   -59.1997   -21.0851 H            1 COA201   0.0000
@<TRIPOS>BOND
     1    1    2      ar
     2    1    6      ar
     3    2    3      ar
     4    3    4      ar
     5    4    5      ar
     6    4   10       1
     7    5    6      ar
     8    5    8       1
     9    6    7       1
    10    8    9       2
    11    9   10       1
    12   10   11       1
    13   11   12       1
    14   11   21       1
    15   12   13       1
    16   12   14       1
    17   14   15       1
    18   14   20       1
    19   15   16       1
    20   16   17      ar
    21   16   18      ar
    22   16   19      ar
    23   20   21       1
    24   20   22       1
    25   22   23       1
    26   23   24       1
    27   24   25      ar
    28   24   26      ar
    29   24   27       1
    30   27   28       1
    31   28   29      ar
    32   28   30      ar
    33   28   31       1
    34   31   33       1
    35   32   33       1
    36   32   34       1
    37   32   35       1
    38   32   36       1
    39   36   37       1
    40   36   38       1
    41   38   39       2
    42   38   40      am
    43   40   41       1
    44   41   42       1
    45   42   43       1
    46   43   44       2
    47   43   45      am
    48   45   46       1
    49   46   47       1
    50   47   48       1
    51    2   49       1
    52    7   50       1
    53    7   51       1
    54    9   52       1
    55   11   53       1
    56   12   54       1
    57   13   55       1
    58   14   56       1
    59   48   80       1
    60   47   79       1
    61   20   57       1
    62   22   58       1
    63   22   59       1
    64   47   78       1
    65   46   77       1
    66   33   60       1
    67   33   61       1
    68   34   62       1
    69   34   63       1
    70   34   64       1
    71   35   65       1
    72   35   66       1
    73   35   67       1
    74   36   68       1
    75   37   69       1
    76   40   70       1
    77   41   71       1
    78   41   72       1
    79   42   73       1
    80   42   74       1
    81   45   75       1
    82   46   76       1
@<TRIPOS>SUBSTRUCTURE
     1 COA201      1 GROUP             4 A     COA     0 **** COA A 201
