@<TRIPOS>MOLECULE
1cy1_TMP_1_ligand
   34    35     1     0     0
SMALL
NO_CHARGES


@<TRIPOS>ATOM
     1 P           36.9240    16.8170    42.6870 P.3          1 TMP600   0.0000
     2 O1P         35.4190    16.7980    42.8410 O.co2        1 TMP600   0.0000
     3 O2P         37.5420    16.1050    41.5630 O.co2        1 TMP600  -1.0000
     4 O3P         37.5470    16.3790    43.9460 O.co2        1 TMP600  -1.0000
     5 O5'         37.2280    18.3050    42.5180 O.3          1 TMP600   0.0000
     6 C5'         38.5670    18.8640    42.3310 C.3          1 TMP600   0.0000
     7 C4'         38.4280    19.9510    41.2660 C.3          1 TMP600   0.0000
     8 O4'         39.5120    20.8890    41.4850 O.3          1 TMP600   0.0000
     9 C3'         38.5870    19.4700    39.8080 C.3          1 TMP600   0.0000
    10 O3'         37.9620    20.4420    38.9740 O.3          1 TMP600   0.0000
    11 C2'         40.1090    19.4830    39.5790 C.3          1 TMP600   0.0000
    12 C1'         40.6130    20.4850    40.6310 C.3          1 TMP600   0.0000
    13 N1          41.9840    20.8680    41.0120 N.pl3        1 TMP600   0.0000
    14 C2          43.1510    20.2450    40.4980 C.2          1 TMP600   0.0000
    15 O2          43.1570    19.3110    39.6820 O.2          1 TMP600   0.0000
    16 N3          44.3410    20.7960    41.0020 N.pl3        1 TMP600   0.0000
    17 C4          44.4370    21.8580    41.9270 C.2          1 TMP600   0.0000
    18 O4          45.5360    22.2750    42.3070 O.2          1 TMP600   0.0000
    19 C5          43.1820    22.4170    42.3950 C.2          1 TMP600   0.0000
    20 C5M         43.1740    23.5100    43.3440 C.3          1 TMP600   0.0000
    21 C6          41.9970    21.8810    41.9000 C.2          1 TMP600   0.0000
    22 H5'1        39.1994    18.1538    42.0215 H            1 TMP600   0.0000
    23 H5'2        38.9013    19.2579    43.1872 H            1 TMP600   0.0000
    24 H4'         37.5505    20.4184    41.3734 H            1 TMP600   0.0000
    25 H3'         38.1983    18.5586    39.6726 H            1 TMP600   0.0000
    26 H5          38.0452    20.1633    38.0172 H            1 TMP600   0.0000
    27 H2'1        40.3300    19.7923    38.6541 H            1 TMP600   0.0000
    28 H2'2        40.5023    18.5761    39.7300 H            1 TMP600   0.0000
    29 H1'         40.5023    21.2692    40.0204 H            1 TMP600   0.0000
    30 H9          45.1989    20.3994    40.6754 H            1 TMP600   0.0000
    31 H5M1        42.2294    23.7642    43.5517 H            1 TMP600   0.0000
    32 H5M2        43.6350    23.2251    44.1844 H            1 TMP600   0.0000
    33 H5M3        43.6521    24.2957    42.9515 H            1 TMP600   0.0000
    34 H13         41.1265    22.2602    42.2138 H            1 TMP600   0.0000
@<TRIPOS>BOND
     1    1    2      ar
     2    1    3      ar
     3    1    4      ar
     4    1    5       1
     5    5    6       1
     6    6    7       1
     7    7    8       1
     8    7    9       1
     9    8   12       1
    10    9   10       1
    11    9   11       1
    12   11   12       1
    13   12   13       1
    14   13   14       1
    15   13   21       1
    16   14   15       2
    17   14   16       1
    18   16   17       1
    19   17   18       2
    20   17   19       1
    21   19   20       1
    22   19   21       2
    23   21   34       1
    24   20   33       1
    25    6   22       1
    26    6   23       1
    27    7   24       1
    28    9   25       1
    29   10   26       1
    30   11   27       1
    31   11   28       1
    32   12   29       1
    33   16   30       1
    34   20   31       1
    35   20   32       1
@<TRIPOS>SUBSTRUCTURE
     1 TMP600      1 GROUP             4 A     TMP     0 **** TMP A 600
