@<TRIPOS>MOLECULE
2j5b_TYE_2_ligand
   24    24     1     0     0
SMALL
NO_CHARGES


@<TRIPOS>ATOM
     1 N           27.8140    55.7570    20.3800 N.4          1 TYE1338   1.0000
     2 CA          27.7070    54.8540    19.2200 C.3          1 TYE1338   0.0000
     3 C           26.8740    53.6430    19.5780 C.2          1 TYE1338   0.0000
     4 O           26.4050    53.5170    20.6880 O.2          1 TYE1338   0.0000
     5 CB          29.1020    54.3810    18.7820 C.3          1 TYE1338   0.0000
     6 CG          29.9900    55.5470    18.4110 C.ar         1 TYE1338   0.0000
     7 CD1         31.0110    55.9630    19.3010 C.ar         1 TYE1338   0.0000
     8 CD2         29.8070    56.2170    17.1800 C.ar         1 TYE1338   0.0000
     9 CE1         31.8460    57.0470    18.9590 C.ar         1 TYE1338   0.0000
    10 CE2         30.6390    57.3000    16.8350 C.ar         1 TYE1338   0.0000
    11 CZ          31.6600    57.7170    17.7240 C.ar         1 TYE1338   0.0000
    12 OH          32.4600    58.7600    17.3890 O.3          1 TYE1338   0.0000
    13 H1          28.6164    55.5088    20.9227 H            1 TYE1338   0.0000
    14 H2          27.9062    56.7002    20.0608 H            1 TYE1338   0.0000
    15 HA          27.2716    55.3409    18.4628 H            1 TYE1338   0.0000
    16 H4          26.7083    52.9371    18.8893 H            1 TYE1338   0.0000
    17 HB1         29.0071    53.7793    17.9889 H            1 TYE1338   0.0000
    18 HB2         29.5253    53.8764    19.5345 H            1 TYE1338   0.0000
    19 HD1         31.1396    55.4881    20.1716 H            1 TYE1338   0.0000
    20 HD2         29.0859    55.9218    16.5532 H            1 TYE1338   0.0000
    21 HE1         32.5671    57.3419    19.5860 H            1 TYE1338   0.0000
    22 HE2         30.5091    57.7737    15.9639 H            1 TYE1338   0.0000
    23 HH          33.1821    59.0571    18.0137 H            1 TYE1338   0.0000
    24 H12         26.9920    55.6746    20.9435 H            1 TYE1338   0.0000
@<TRIPOS>BOND
     1    1    2       1
     2    2    3       1
     3    2    5       1
     4    3    4       2
     5    5    6       1
     6    6    7      ar
     7    6    8      ar
     8    7    9      ar
     9    8   10      ar
    10    9   11      ar
    11   10   11      ar
    12   11   12       1
    13    1   13       1
    14    1   14       1
    15    2   15       1
    16    3   16       1
    17    5   17       1
    18    5   18       1
    19    7   19       1
    20    8   20       1
    21    9   21       1
    22   10   22       1
    23   12   23       1
    24    1   24       1
@<TRIPOS>SUBSTRUCTURE
     1 TYE1338     1 GROUP             4 B     TYE     0 **** TYE B1338
