@<TRIPOS>MOLECULE
3cd5_7HI_4_ligand
   73    76     1     0     0
SMALL
NO_CHARGES


@<TRIPOS>ATOM
     1 N1          29.3410   -15.3160    10.1390 N.pl3        1 7HI876   0.0000
     2 C4          31.8400   -12.4250    10.1280 C.3          1 7HI876   0.0000
     3 C5          30.4030   -14.5160    10.3740 C.2          1 7HI876   0.0000
     4 C6          28.6550   -17.7380    10.5300 C.3          1 7HI876   0.0000
     5 C7          28.0970   -14.8910     9.4940 C.3          1 7HI876   0.0000
     6 C8          27.2150   -14.2090    10.5390 C.3          1 7HI876   0.0000
     7 C10         25.1120   -12.9830    11.0630 C.3          1 7HI876   0.0000
     8 C13         27.5200   -17.5690    11.5150 C.3          1 7HI876   0.0000
     9 C15         36.3470   -22.8160    13.8420 C.ar         1 7HI876   0.0000
    10 C17         33.4730   -19.5980    13.0220 C.ar         1 7HI876   0.0000
    11 C20         34.1220   -20.7720    13.4110 C.ar         1 7HI876   0.0000
    12 C21         36.5630   -25.2110    13.8400 C.ar         1 7HI876   0.0000
    13 C22         35.2980   -22.8990    12.9280 C.ar         1 7HI876   0.0000
    14 C24         35.5130   -25.3030    12.9280 C.ar         1 7HI876   0.0000
    15 C26         33.8080   -20.2030    10.7180 C.ar         1 7HI876   0.0000
    16 O2          30.9670   -18.2130    12.7150 O.2          1 7HI876   0.0000
    17 C3          31.5450   -17.6980    11.7720 C.2          1 7HI876   0.0000
    18 N2          32.6840   -18.1700    11.2400 N.am         1 7HI876   0.0000
    19 C32         33.3080   -19.3030    11.6680 C.ar         1 7HI876   0.0000
    20 C23         34.4550   -21.3780    11.1070 C.ar         1 7HI876   0.0000
    21 C29         34.6170   -21.6600    12.4620 C.ar         1 7HI876   0.0000
    22 C18         34.8810   -24.1450    12.4710 C.ar         1 7HI876   0.0000
    23 C16         36.9800   -23.9660    14.3000 C.ar         1 7HI876   0.0000
    24 C2          30.8610   -16.5320    11.1330 C.2          1 7HI876   0.0000
    25 C12         29.5860   -16.5520    10.5990 C.2          1 7HI876   0.0000
    26 C27         30.4560   -13.0470     9.9890 C.3          1 7HI876   0.0000
    27 C25         32.2670   -12.3890    11.5720 C.2          1 7HI876   0.0000
    28 C19         32.6610   -13.4980    12.1990 C.2          1 7HI876   0.0000
    29 C14         32.7640   -14.8240    11.4810 C.3          1 7HI876   0.0000
    30 C1          31.3950   -15.2650    11.0150 C.2          1 7HI876   0.0000
    31 C9          25.9710   -13.5600     9.9390 C.3          1 7HI876   0.0000
    32 O4          25.1870   -14.5130     9.2450 O.3          1 7HI876   0.0000
    33 C11         25.6320   -11.6490    11.5830 C.3          1 7HI876   0.0000
    34 O3          25.7010   -10.7100    10.5240 O.3          1 7HI876   0.0000
    35 C35         24.6850   -11.1290    12.6600 C.3          1 7HI876   0.0000
    36 C36         25.4050   -10.1500    13.5530 C.2          1 7HI876   0.0000
    37 O7          25.1210    -8.9670    13.5140 O.co2        1 7HI876   0.0000
    38 O6          26.3500   -10.5790    14.3830 O.co2        1 7HI876  -1.0000
    39 H1          31.8177   -11.4918     9.7693 H            1 7HI876   0.0000
    40 H2          32.4974   -12.9675     9.6050 H            1 7HI876   0.0000
    41 H3          28.2816   -17.8115     9.6052 H            1 7HI876   0.0000
    42 H4          29.1633   -18.5703    10.7514 H            1 7HI876   0.0000
    43 H5          27.6220   -15.6876     9.1202 H            1 7HI876   0.0000
    44 H6          28.3026   -14.2487     8.7556 H            1 7HI876   0.0000
    45 H7          27.7533   -13.5020    10.9976 H            1 7HI876   0.0000
    46 H8          26.9258   -14.8940    11.2077 H            1 7HI876   0.0000
    47 H9          25.0967   -13.6362    11.8200 H            1 7HI876   0.0000
    48 H10         24.1827   -12.8505    10.7182 H            1 7HI876   0.0000
    49 H11         26.9105   -18.3599    11.4602 H            1 7HI876   0.0000
    50 H12         27.8903   -17.4971    12.4411 H            1 7HI876   0.0000
    51 H13         27.0086   -16.7383    11.2950 H            1 7HI876   0.0000
    52 H14         36.6472   -21.9208    14.1715 H            1 7HI876   0.0000
    53 H15         33.1256   -18.9670    13.7157 H            1 7HI876   0.0000
    54 H16         34.2321   -20.9765    14.3837 H            1 7HI876   0.0000
    55 H17         37.0171   -26.0409    14.1641 H            1 7HI876   0.0000
    56 H18         35.2122   -26.1988    12.6009 H            1 7HI876   0.0000
    57 H19         33.6998   -20.0007     9.7447 H            1 7HI876   0.0000
    58 H20         33.0983   -17.6603    10.4859 H            1 7HI876   0.0000
    59 H21         34.8003   -22.0137    10.4166 H            1 7HI876   0.0000
    60 H22         34.1288   -24.2112    11.8154 H            1 7HI876   0.0000
    61 H23         37.7312   -23.8986    14.9567 H            1 7HI876   0.0000
    62 H24         30.1654   -12.9600     9.0361 H            1 7HI876   0.0000
    63 H25         29.8235   -12.5437    10.5777 H            1 7HI876   0.0000
    64 H26         32.2548   -11.5207    12.0678 H            1 7HI876   0.0000
    65 H27         32.8946   -13.4511    13.1702 H            1 7HI876   0.0000
    66 H28         33.1390   -15.5102    12.1043 H            1 7HI876   0.0000
    67 H29         33.3680   -14.7266    10.6900 H            1 7HI876   0.0000
    68 H30         26.2421   -12.8282     9.3136 H            1 7HI876   0.0000
    69 H31         25.7276   -14.9147     8.5058 H            1 7HI876   0.0000
    70 H32         26.5433   -11.7767    11.9745 H            1 7HI876   0.0000
    71 H33         24.7892   -10.5787    10.1350 H            1 7HI876   0.0000
    72 H34         24.3548   -11.8968    13.2091 H            1 7HI876   0.0000
    73 H35         23.9090   -10.6718    12.2256 H            1 7HI876   0.0000
@<TRIPOS>BOND
     1    1    3       1
     2    1    5       1
     3    1   25       1
     4    2   26       1
     5    2   27       1
     6    3   26       1
     7    3   30       2
     8    4    8       1
     9    4   25       1
    10    5    6       1
    11    6   31       1
    12    7   31       1
    13    7   33       1
    14    9   13      ar
    15    9   23      ar
    16   10   11      ar
    17   10   19      ar
    18   11   21      ar
    19   12   14      ar
    20   12   23      ar
    21   13   21       1
    22   13   22      ar
    23   14   22      ar
    24   15   19      ar
    25   15   20      ar
    26   16   17       2
    27   17   18      am
    28   17   24       1
    29   18   19       1
    30   20   21      ar
    31   24   25       2
    32   24   30       1
    33   27   28       2
    34   28   29       1
    35   29   30       1
    36   31   32       1
    37   33   34       1
    38   33   35       1
    39   35   36       1
    40   36   37      ar
    41   36   38      ar
    42    2   39       1
    43    2   40       1
    44    4   41       1
    45    4   42       1
    46    5   43       1
    47    5   44       1
    48    6   45       1
    49    6   46       1
    50    7   47       1
    51    7   48       1
    52    8   49       1
    53    8   50       1
    54    8   51       1
    55    9   52       1
    56   10   53       1
    57   11   54       1
    58   12   55       1
    59   14   56       1
    60   15   57       1
    61   18   58       1
    62   20   59       1
    63   22   60       1
    64   23   61       1
    65   26   62       1
    66   26   63       1
    67   27   64       1
    68   28   65       1
    69   29   66       1
    70   29   67       1
    71   31   68       1
    72   32   69       1
    73   33   70       1
    74   34   71       1
    75   35   72       1
    76   35   73       1
@<TRIPOS>SUBSTRUCTURE
     1 7HI876      1 GROUP             4 D     7HI     0 **** 7HI D 876
