@<TRIPOS>MOLECULE
1xqd_DND_1_ligand
   68    72     1     0     0
SMALL
NO_CHARGES


@<TRIPOS>ATOM
     1 PN          11.5500    30.0070    26.2070 P.3          1 DND502   0.0000
     2 O11         11.1470    29.3580    27.4810 O.co2        1 DND502   0.0000
     3 O12         11.5310    29.2830    24.9110 O.co2        1 DND502  -1.0000
     4 O3P         12.0720    31.5570    26.1920 O.3          1 DND502   0.0000
     5 O5D         13.0860    29.5570    26.4760 O.3          1 DND502   0.0000
     6 C5D         13.9090    29.9250    27.6710 C.3          1 DND502   0.0000
     7 C4D         15.3800    30.1570    27.2480 C.3          1 DND502   0.0000
     8 O4D         15.8410    28.9600    26.5410 O.3          1 DND502   0.0000
     9 C3D         15.6140    31.3360    26.2810 C.3          1 DND502   0.0000
    10 O3D         16.8180    32.0860    26.5560 O.3          1 DND502   0.0000
    11 C2D         15.6180    30.6430    24.9330 C.3          1 DND502   0.0000
    12 O2D         16.2460    31.4300    23.9070 O.3          1 DND502   0.0000
    13 C1D         16.2920    29.3390    25.2590 C.3          1 DND502   0.0000
    14 N1N         15.9340    28.3200    24.2500 N.ar         1 DND502   1.0000
    15 C6N         16.8620    28.1340    23.1860 C.ar         1 DND502   0.0000
    16 C5N         16.4530    27.1630    22.2850 C.ar         1 DND502   0.0000
    17 C4N         15.2530    26.3940    22.3580 C.ar         1 DND502   0.0000
    18 C3N         14.3840    26.6780    23.4950 C.ar         1 DND502   0.0000
    19 C2N         14.7130    27.6390    24.4450 C.ar         1 DND502   0.0000
    20 C7N         13.1000    25.8750    23.5880 C.2          1 DND502   0.0000
    21 O7N         12.2770    26.0900    24.5760 O.co2        1 DND502   0.0000
    22 O8N         12.8480    24.9580    22.7130 O.co2        1 DND502  -1.0000
    23 PA          11.5230    32.8830    26.9320 P.3          1 DND502   0.0000
    24 O13         12.5620    33.6660    26.3290 O.co2        1 DND502   0.0000
    25 O14         11.5690    32.2920    28.2780 O.co2        1 DND502  -1.0000
    26 O5B         10.2470    32.4790    26.1100 O.3          1 DND502   0.0000
    27 C5B          8.9760    32.8110    26.4950 C.3          1 DND502   0.0000
    28 C4B          8.4410    33.8260    25.5450 C.3          1 DND502   0.0000
    29 O4B          7.0940    34.1260    25.9930 O.3          1 DND502   0.0000
    30 C3B          9.1580    35.2110    25.4760 C.3          1 DND502   0.0000
    31 O3B          9.8760    35.4990    24.2770 O.3          1 DND502   0.0000
    32 C2B          8.0380    36.2140    25.8440 C.3          1 DND502   0.0000
    33 O2B          7.5060    36.8400    24.6470 O.3          1 DND502   0.0000
    34 C1B          6.9770    35.4200    26.5440 C.3          1 DND502   0.0000
    35 N9A          7.2100    35.5050    28.0290 N.pl3        1 DND502   0.0000
    36 C4A          6.7150    36.5280    28.8090 C.ar         1 DND502   0.0000
    37 N3A          5.9470    37.6110    28.3960 N.ar         1 DND502   0.0000
    38 C2A          5.6360    38.4280    29.4130 C.ar         1 DND502   0.0000
    39 N1A          6.0070    38.2700    30.7600 N.ar         1 DND502   0.0000
    40 C6A          6.7840    37.1690    31.1610 C.ar         1 DND502   0.0000
    41 C5A          7.1670    36.2360    30.1400 C.ar         1 DND502   0.0000
    42 N7A          7.9120    35.0780    30.2070 N.2          1 DND502   0.0000
    43 C8A          7.9050    34.6860    28.9320 C.2          1 DND502   0.0000
    44 N6A          7.1460    37.0060    32.4350 N.pl3        1 DND502   0.0000
    45 H5D1        13.8699    29.1839    28.3413 H            1 DND502   0.0000
    46 H5D2        13.5454    30.7626    28.0786 H            1 DND502   0.0000
    47 H4D         15.9390    30.2892    28.0666 H            1 DND502   0.0000
    48 H3D         14.8290    31.9539    26.3262 H            1 DND502   0.0000
    49 H5          17.6112    31.4813    26.4839 H            1 DND502   0.0000
    50 H2D         14.6729    30.4581    24.6635 H            1 DND502   0.0000
    51 H7          15.5873    31.6132    23.1773 H            1 DND502   0.0000
    52 H1D         17.2838    29.4659    25.2737 H            1 DND502   0.0000
    53 H6N         17.7155    28.6477    23.0983 H            1 DND502   0.0000
    54 H5N         17.0574    26.9841    21.5087 H            1 DND502   0.0000
    55 H4N         15.0221    25.7035    21.6725 H            1 DND502   0.0000
    56 H2N         14.1173    27.8367    25.2235 H            1 DND502   0.0000
    57 H5B1         8.9927    33.1911    27.4198 H            1 DND502   0.0000
    58 H5B2         8.3959    31.9966    26.4797 H            1 DND502   0.0000
    59 H4B          8.4020    33.4297    24.6277 H            1 DND502   0.0000
    60 H3B          9.8221    35.2311    26.2234 H            1 DND502   0.0000
    61 H17         10.8202    35.1829    24.3698 H            1 DND502   0.0000
    62 H2B          8.3992    36.9139    26.4602 H            1 DND502   0.0000
    63 H19          6.7845    37.4844    24.9004 H            1 DND502   0.0000
    64 H1B          6.0772    35.7971    26.3244 H            1 DND502   0.0000
    65 H2A          5.0839    39.2316    29.1907 H            1 DND502   0.0000
    66 H8A          8.3706    33.8522    28.6352 H            1 DND502   0.0000
    67 H6A1         7.6989    36.2162    32.7006 H            1 DND502   0.0000
    68 H6A2         6.8644    37.6737    33.1242 H            1 DND502   0.0000
@<TRIPOS>BOND
     1    1    2      ar
     2    1    3      ar
     3    1    4       1
     4    1    5       1
     5    4   23       1
     6    5    6       1
     7    6    7       1
     8    7    8       1
     9    7    9       1
    10    8   13       1
    11    9   10       1
    12    9   11       1
    13   11   12       1
    14   11   13       1
    15   13   14       1
    16   14   15      ar
    17   14   19      ar
    18   15   16      ar
    19   16   17      ar
    20   17   18      ar
    21   18   19      ar
    22   18   20       1
    23   20   21      ar
    24   20   22      ar
    25   23   24      ar
    26   23   25      ar
    27   23   26       1
    28   26   27       1
    29   27   28       1
    30   28   29       1
    31   28   30       1
    32   29   34       1
    33   30   31       1
    34   30   32       1
    35   32   33       1
    36   32   34       1
    37   34   35       1
    38   35   36       1
    39   35   43       1
    40   36   37      ar
    41   36   41      ar
    42   37   38      ar
    43   38   39      ar
    44   39   40      ar
    45   40   41      ar
    46   40   44       1
    47   41   42       1
    48   42   43       2
    49   44   68       1
    50    6   45       1
    51    6   46       1
    52    7   47       1
    53    9   48       1
    54   10   49       1
    55   11   50       1
    56   12   51       1
    57   13   52       1
    58   15   53       1
    59   16   54       1
    60   17   55       1
    61   19   56       1
    62   44   67       1
    63   43   66       1
    64   27   57       1
    65   27   58       1
    66   28   59       1
    67   30   60       1
    68   31   61       1
    69   32   62       1
    70   33   63       1
    71   34   64       1
    72   38   65       1
@<TRIPOS>SUBSTRUCTURE
     1 DND502      1 GROUP             4 A     DND     0 **** DND A 502
