@<TRIPOS>MOLECULE
6cox_S58_1_ligand
   37    39     1     0     0
SMALL
NO_CHARGES


@<TRIPOS>ATOM
     1 C1          26.5160    23.5000    48.3410 C.2          1 S58701   0.0000
     2 C2          25.3480    23.4870    47.7240 C.2          1 S58701   0.0000
     3 C3          26.3440    22.8380    49.6420 C.2          1 S58701   0.0000
     4 C4          27.3710    22.7160    50.7040 C.3          1 S58701   0.0000
     5 C5          23.0300    22.8360    48.3890 C.ar         1 S58701   0.0000
     6 C6          22.3220    21.8820    49.1400 C.ar         1 S58701   0.0000
     7 C7          20.9290    21.8370    49.0970 C.ar         1 S58701   0.0000
     8 C8          20.2340    22.7410    48.2970 C.ar         1 S58701   0.0000
     9 C9          20.9310    23.7030    47.5280 C.ar         1 S58701   0.0000
    10 C10         22.3370    23.7540    47.5730 C.ar         1 S58701   0.0000
    11 C11         25.1400    24.0310    46.3770 C.ar         1 S58701   0.0000
    12 C12         25.6140    25.3240    46.0910 C.ar         1 S58701   0.0000
    13 C13         25.5110    25.8260    44.7860 C.ar         1 S58701   0.0000
    14 C14         24.9410    25.0320    43.7850 C.ar         1 S58701   0.0000
    15 C15         24.4530    23.7430    44.0620 C.ar         1 S58701   0.0000
    16 C16         24.5500    23.2390    45.3640 C.ar         1 S58701   0.0000
    17 N1          24.4370    22.8660    48.5210 N.pl3        1 S58701   0.0000
    18 N2          25.1210    22.4560    49.7260 N.2          1 S58701   0.0000
    19 N3          17.7920    23.6300    49.5410 N.3          1 S58701   0.0000
    20 O1          18.1390    21.2260    48.4160 O.2          1 S58701   0.0000
    21 O2          17.9120    23.0820    47.0180 O.2          1 S58701   0.0000
    22 BR1         24.8760    25.6810    42.0800 Br           1 S58701   0.0000
    23 F1          26.8200    22.9600    51.8880 F            1 S58701   0.0000
    24 F2          28.3060    23.6390    50.4780 F            1 S58701   0.0000
    25 F3          27.8870    21.4830    50.6680 F            1 S58701   0.0000
    26 S1          18.4310    22.6150    48.2540 S.o2         1 S58701   0.0000
    27 H1          27.3655    23.8905    47.9863 H            1 S58701   0.0000
    28 H2          22.8216    21.2298    49.7101 H            1 S58701   0.0000
    29 H3          20.4313    21.1590    49.6379 H            1 S58701   0.0000
    30 H4          20.4251    24.3461    46.9531 H            1 S58701   0.0000
    31 H5          22.8373    24.4316    47.0340 H            1 S58701   0.0000
    32 H6          26.0219    25.8817    46.8139 H            1 S58701   0.0000
    33 H7          25.8425    26.7449    44.5722 H            1 S58701   0.0000
    34 H8          24.0409    23.1920    43.3363 H            1 S58701   0.0000
    35 H9          24.2045    22.3250    45.5769 H            1 S58701   0.0000
    36 H10         18.5486    24.0653    50.0290 H            1 S58701   0.0000
    37 H11         17.2002    24.3337    49.1478 H            1 S58701   0.0000
@<TRIPOS>BOND
     1    1    2       2
     2    1    3       1
     3    2   11       1
     4    2   17       1
     5    3    4       1
     6    3   18       2
     7    4   23       1
     8    4   24       1
     9    4   25       1
    10    5    6      ar
    11    5   10      ar
    12    5   17       1
    13    6    7      ar
    14    7    8      ar
    15    8    9      ar
    16    8   26       1
    17    9   10      ar
    18   11   12      ar
    19   11   16      ar
    20   12   13      ar
    21   13   14      ar
    22   14   15      ar
    23   14   22       1
    24   15   16      ar
    25   17   18       1
    26   19   26       1
    27   20   26       2
    28   21   26       2
    29    1   27       1
    30    6   28       1
    31    7   29       1
    32    9   30       1
    33   10   31       1
    34   12   32       1
    35   13   33       1
    36   15   34       1
    37   16   35       1
    38   19   36       1
    39   19   37       1
@<TRIPOS>SUBSTRUCTURE
     1 S58701      1 GROUP             4 A     S58     0 **** S58 A 701
