@<TRIPOS>MOLECULE
5jr3_SAH_4_ligand
   46    48     1     0     0
SMALL
NO_CHARGES


@<TRIPOS>ATOM
     1 N            2.3860     0.7880    56.5910 N.4          1 SAH401   1.0000
     2 CA           1.7080     1.8050    55.7900 C.3          1 SAH401   0.0000
     3 CB           2.1290     1.6470    54.3350 C.3          1 SAH401   0.0000
     4 CG           1.8920     0.2430    53.7670 C.3          1 SAH401   0.0000
     5 SD           2.1530     0.0540    51.9840 S.3          1 SAH401   0.0000
     6 C            0.1920     1.7020    55.9430 C.2          1 SAH401   0.0000
     7 O           -0.5660     2.4120    55.2740 O.co2        1 SAH401   0.0000
     8 OXT         -0.3140     0.9080    56.7520 O.co2        1 SAH401  -1.0000
     9 C5'          3.6920    -0.8860    52.1150 C.3          1 SAH401   0.0000
    10 C4'          4.9650    -0.0510    52.3230 C.3          1 SAH401   0.0000
    11 O4'          6.0860    -0.9090    52.2190 O.3          1 SAH401   0.0000
    12 C3'          5.1610     0.9690    51.1900 C.3          1 SAH401   0.0000
    13 O3'          5.0040     2.2810    51.6750 O.3          1 SAH401   0.0000
    14 C2'          6.5540     0.7090    50.6430 C.3          1 SAH401   0.0000
    15 O2'          7.3040     1.8910    50.5110 O.3          1 SAH401   0.0000
    16 C1'          7.1790    -0.1680    51.7200 C.3          1 SAH401   0.0000
    17 N9           8.2180    -1.0710    51.2150 N.pl3        1 SAH401   0.0000
    18 C8           8.1380    -1.9460    50.1780 C.2          1 SAH401   0.0000
    19 N7           9.3130    -2.6000    50.0620 N.2          1 SAH401   0.0000
    20 C5          10.1480    -2.1350    51.0330 C.ar         1 SAH401   0.0000
    21 C6          11.4590    -2.4470    51.3780 C.ar         1 SAH401   0.0000
    22 N6          12.1700    -3.3690    50.7150 N.pl3        1 SAH401   0.0000
    23 N1          12.0240    -1.7840    52.4330 N.ar         1 SAH401   0.0000
    24 C2          11.3250    -0.8270    53.1320 C.ar         1 SAH401   0.0000
    25 N3          10.0280    -0.5230    52.8010 N.ar         1 SAH401   0.0000
    26 C4           9.4610    -1.1780    51.7580 C.ar         1 SAH401   0.0000
    27 H1           2.5323     1.1359    57.5170 H            1 SAH401   0.0000
    28 H2           1.8216    -0.0366    56.6300 H            1 SAH401   0.0000
    29 HA           1.9991     2.7070    56.1089 H            1 SAH401   0.0000
    30 HB1          3.1049     1.8538    54.2657 H            1 SAH401   0.0000
    31 HB2          1.6098     2.3008    53.7845 H            1 SAH401   0.0000
    32 HG1          0.9460    -0.0123    53.9666 H            1 SAH401   0.0000
    33 HG2          2.5128    -0.3855    54.2355 H            1 SAH401   0.0000
    34 H5'1         3.8037    -1.4122    51.2720 H            1 SAH401   0.0000
    35 H5'2         3.6049    -1.5122    52.8898 H            1 SAH401   0.0000
    36 H4'          4.9487     0.4054    53.2126 H            1 SAH401   0.0000
    37 H3'          4.4865     0.7990    50.4716 H            1 SAH401   0.0000
    38 H12          5.6813     2.4554    52.3898 H            1 SAH401   0.0000
    39 H2'          6.5068     0.2204    49.7718 H            1 SAH401   0.0000
    40 H14          7.3989     2.3272    51.4058 H            1 SAH401   0.0000
    41 H1'          7.5560     0.4070    52.4461 H            1 SAH401   0.0000
    42 H16          7.3374    -2.0832    49.5948 H            1 SAH401   0.0000
    43 H17         13.1105    -3.5683    50.9902 H            1 SAH401   0.0000
    44 H18         11.7602    -3.8579    49.9449 H            1 SAH401   0.0000
    45 H19         11.7670    -0.3473    53.8900 H            1 SAH401   0.0000
    46 H20          3.2681     0.5687    56.1741 H            1 SAH401   0.0000
@<TRIPOS>BOND
     1    1    2       1
     2    2    3       1
     3    2    6       1
     4    3    4       1
     5    4    5       1
     6    5    9       1
     7    6    7      ar
     8    6    8      ar
     9    9   10       1
    10   10   11       1
    11   10   12       1
    12   11   16       1
    13   12   13       1
    14   12   14       1
    15   14   15       1
    16   14   16       1
    17   16   17       1
    18   17   18       1
    19   17   26       1
    20   18   19       2
    21   19   20       1
    22   20   21      ar
    23   20   26      ar
    24   21   22       1
    25   21   23      ar
    26   23   24      ar
    27   24   25      ar
    28   25   26      ar
    29    1   27       1
    30    1   28       1
    31    2   29       1
    32    3   30       1
    33    3   31       1
    34    4   32       1
    35    4   33       1
    36    1   46       1
    37    9   34       1
    38    9   35       1
    39   10   36       1
    40   12   37       1
    41   13   38       1
    42   14   39       1
    43   15   40       1
    44   16   41       1
    45   18   42       1
    46   22   43       1
    47   22   44       1
    48   24   45       1
@<TRIPOS>SUBSTRUCTURE
     1 SAH401      1 GROUP             4 C     SAH     0 **** SAH C 401
