@<TRIPOS>MOLECULE
2ydx_STL_9_ligand
   29    30     1     0     0
SMALL
NO_CHARGES


@<TRIPOS>ATOM
     1 C1         -15.0980   -54.2790   -62.3040 C.ar         1 STL501   0.0000
     2 C2         -14.7320   -54.1990   -63.7390 C.ar         1 STL501   0.0000
     3 C3         -13.2910   -54.2040   -64.0780 C.ar         1 STL501   0.0000
     4 C4         -12.2170   -54.2770   -63.1580 C.ar         1 STL501   0.0000
     5 C5         -12.5500   -54.3480   -61.7410 C.ar         1 STL501   0.0000
     6 C6         -13.9900   -54.3600   -61.2930 C.ar         1 STL501   0.0000
     7 C7         -11.4540   -54.4640   -60.8030 C.2          1 STL501   0.0000
     8 C8         -10.1380   -54.3680   -61.0920 C.2          1 STL501   0.0000
     9 C9          -9.0440   -54.5560   -60.0380 C.ar         1 STL501   0.0000
    10 C10         -9.2740   -55.4710   -58.9650 C.ar         1 STL501   0.0000
    11 C11         -8.3620   -55.7690   -57.9230 C.ar         1 STL501   0.0000
    12 C12         -7.0380   -55.1130   -57.9070 C.ar         1 STL501   0.0000
    13 C13         -6.6410   -54.1490   -58.9530 C.ar         1 STL501   0.0000
    14 C14         -7.6880   -53.8740   -60.0550 C.ar         1 STL501   0.0000
    15 O1          -6.3250   -55.5260   -56.8360 O.3          1 STL501   0.0000
    16 O2         -12.9260   -54.1760   -65.3360 O.3          1 STL501   0.0000
    17 O3         -16.5860   -54.2770   -61.9090 O.3          1 STL501   0.0000
    18 H1         -15.4323   -54.1438   -64.4508 H            1 STL501   0.0000
    19 H2         -11.2665   -54.2797   -63.4687 H            1 STL501   0.0000
    20 H3         -14.2081   -54.4221   -60.3190 H            1 STL501   0.0000
    21 H4         -11.6946   -54.6317   -59.8470 H            1 STL501   0.0000
    22 H5          -9.8673   -54.1658   -62.0332 H            1 STL501   0.0000
    23 H6         -10.1559   -55.9422   -58.9482 H            1 STL501   0.0000
    24 H7          -8.6120   -56.4178   -57.2043 H            1 STL501   0.0000
    25 H8          -5.7471   -53.7007   -58.9482 H            1 STL501   0.0000
    26 H9          -7.4686   -53.2354   -60.7926 H            1 STL501   0.0000
    27 H10         -5.4026   -55.1716   -56.6826 H            1 STL501   0.0000
    28 H11        -11.9550   -54.1791   -65.5751 H            1 STL501   0.0000
    29 H12        -17.2910   -54.2222   -62.6161 H            1 STL501   0.0000
@<TRIPOS>BOND
     1    1    2      ar
     2    1    6      ar
     3    1   17       1
     4    2    3      ar
     5    3    4      ar
     6    3   16       1
     7    4    5      ar
     8    5    6      ar
     9    5    7       1
    10    7    8       2
    11    8    9       1
    12    9   10      ar
    13    9   14      ar
    14   10   11      ar
    15   11   12      ar
    16   12   13      ar
    17   12   15       1
    18   13   14      ar
    19    2   18       1
    20    4   19       1
    21    6   20       1
    22    7   21       1
    23    8   22       1
    24   10   23       1
    25   11   24       1
    26   13   25       1
    27   14   26       1
    28   15   27       1
    29   16   28       1
    30   17   29       1
@<TRIPOS>SUBSTRUCTURE
     1 STL501      1 GROUP             4 E     STL     0 **** STL E 501
