@<TRIPOS>MOLECULE
4xe3_CL6_1_ligand
   42    45     1     0     0
SMALL
NO_CHARGES


@<TRIPOS>ATOM
     1 CLAY        47.7330    16.2050    15.7470 Cl           1 CL6502   0.0000
     2 CAX         48.3810    15.3480    17.2030 C.ar         1 CL6502   0.0000
     3 CAV         48.1840    13.9840    17.3670 C.ar         1 CL6502   0.0000
     4 CAT         48.6820    13.3570    18.4870 C.ar         1 CL6502   0.0000
     5 CAS         49.3900    14.0680    19.4420 C.ar         1 CL6502   0.0000
     6 CAU         49.6150    15.4360    19.3270 C.ar         1 CL6502   0.0000
     7 CAW         49.1240    16.1320    18.2190 C.ar         1 CL6502   0.0000
     8 CAR         49.2130    17.5610    17.8400 C.3          1 CL6502   0.0000
     9 CAC         50.3780    18.0720    17.0660 C.ar         1 CL6502   0.0000
    10 CAE         51.0120    19.3050    17.2510 C.ar         1 CL6502   0.0000
    11 CAF         52.0720    19.7080    16.4230 C.ar         1 CL6502   0.0000
    12 CAD         52.5110    18.9050    15.3860 C.ar         1 CL6502   0.0000
    13 CAB         51.8800    17.6900    15.1780 C.ar         1 CL6502   0.0000
    14 CAA         50.8300    17.2860    16.0030 C.ar         1 CL6502   0.0000
    15 NAO         47.9110    18.2430    17.6600 N.pl3        1 CL6502   0.0000
    16 CAM         46.7410    17.8540    18.2010 C.2          1 CL6502   0.0000
    17 NAN         45.8150    18.7300    17.7260 N.2          1 CL6502   0.0000
    18 CAQ         46.4250    19.5990    16.8750 C.2          1 CL6502   0.0000
    19 CAP         47.7630    19.2750    16.8130 C.2          1 CL6502   0.0000
    20 CAL         49.5980    18.0900    19.2550 C.ar         1 CL6502   0.0000
    21 CAK         48.7280    18.8510    20.0780 C.ar         1 CL6502   0.0000
    22 CAI         49.0890    19.3170    21.3470 C.ar         1 CL6502   0.0000
    23 CAG         50.3400    19.0400    21.8610 C.ar         1 CL6502   0.0000
    24 CAH         51.2330    18.2980    21.0950 C.ar         1 CL6502   0.0000
    25 CAJ         50.8740    17.8370    19.8190 C.ar         1 CL6502   0.0000
    26 HAV         47.6841    13.4606    16.6769 H            1 CL6502   0.0000
    27 HAT         48.5308    12.3765    18.6126 H            1 CL6502   0.0000
    28 HAS         49.7505    13.5829    20.2387 H            1 CL6502   0.0000
    29 HAU         50.1273    15.9206    20.0360 H            1 CL6502   0.0000
    30 HAE         50.7050    19.9100    17.9857 H            1 CL6502   0.0000
    31 HAF         52.5163    20.5890    16.5856 H            1 CL6502   0.0000
    32 HAD         53.2672    19.1953    14.7995 H            1 CL6502   0.0000
    33 HAB         52.1794    17.0973    14.4303 H            1 CL6502   0.0000
    34 HAA         50.3872    16.4066    15.8281 H            1 CL6502   0.0000
    35 HAM         46.5857    17.0845    18.8205 H            1 CL6502   0.0000
    36 HAQ         45.9791    20.3446    16.3797 H            1 CL6502   0.0000
    37 HAP         48.4702    19.7130    16.2580 H            1 CL6502   0.0000
    38 HAK         47.8133    19.0644    19.7348 H            1 CL6502   0.0000
    39 HAI         48.4378    19.8532    21.8841 H            1 CL6502   0.0000
    40 HAG         50.6000    19.3675    22.7694 H            1 CL6502   0.0000
    41 HAH         52.1415    18.0906    21.4578 H            1 CL6502   0.0000
    42 HAJ         51.5407    17.3123    19.2897 H            1 CL6502   0.0000
@<TRIPOS>BOND
     1    1    2       1
     2    2    3      ar
     3    2    7      ar
     4    3    4      ar
     5    4    5      ar
     6    5    6      ar
     7    6    7      ar
     8    7    8       1
     9    8    9       1
    10    8   15       1
    11    8   20       1
    12    9   10      ar
    13    9   14      ar
    14   10   11      ar
    15   11   12      ar
    16   12   13      ar
    17   13   14      ar
    18   15   16       1
    19   15   19       1
    20   16   17       2
    21   17   18       1
    22   18   19       2
    23   20   21      ar
    24   20   25      ar
    25   21   22      ar
    26   22   23      ar
    27   23   24      ar
    28   24   25      ar
    29    3   26       1
    30    4   27       1
    31    5   28       1
    32    6   29       1
    33   10   30       1
    34   11   31       1
    35   12   32       1
    36   13   33       1
    37   14   34       1
    38   16   35       1
    39   18   36       1
    40   19   37       1
    41   21   38       1
    42   22   39       1
    43   23   40       1
    44   24   41       1
    45   25   42       1
@<TRIPOS>SUBSTRUCTURE
     1 CL6502      1 GROUP             4 A     CL6     0 **** CL6 A 502
