@<TRIPOS>MOLECULE
2f17_PYI_2_ligand
   45    46     1     0     0
SMALL
NO_CHARGES


@<TRIPOS>ATOM
     1 CM2          6.8470    69.4550    25.4180 C.3          1 PYI2202   0.0000
     2 C2A          6.8310    69.8630    23.9690 C.ar         1 PYI2202   0.0000
     3 N1A          7.9580    69.7910    23.2620 N.ar         1 PYI2202   0.0000
     4 C6A          7.9960    70.1450    21.9640 C.ar         1 PYI2202   0.0000
     5 C5A          6.8300    70.6010    21.3340 C.ar         1 PYI2202   0.0000
     6 C7A          6.8620    71.0080    19.8680 C.3          1 PYI2202   0.0000
     7 N3           6.2220    70.0480    18.9060 N.ar         1 PYI2202   1.0000
     8 C2           5.9410    68.7760    19.2930 C.ar         1 PYI2202   0.0000
     9 C1           5.3560    67.8530    18.4300 C.ar         1 PYI2202   0.0000
    10 C6           5.0550    68.2500    17.1250 C.ar         1 PYI2202   0.0000
    11 C5           5.3410    69.5670    16.7060 C.ar         1 PYI2202   0.0000
    12 CM6          5.0130    69.9590    15.2860 C.3          1 PYI2202   0.0000
    13 CM7          6.2080    69.5750    14.4050 C.3          1 PYI2202   0.0000
    14 OM7          5.7940    68.6040    13.4430 O.3          1 PYI2202   0.0000
    15 PA           6.3370    69.0770    11.9990 P.3          1 PYI2202   0.0000
    16 O1A          6.2290    67.8790    11.0470 O.co2        1 PYI2202   0.0000
    17 O2A          5.4520    70.2310    11.4580 O.co2        1 PYI2202  -1.0000
    18 O3A          7.9140    69.4960    12.1550 O.3          1 PYI2202   0.0000
    19 PB           8.3530    70.7140    11.1790 P.3          1 PYI2202   0.0000
    20 O1B          9.8230    70.4560    10.7170 O.co2        1 PYI2202   0.0000
    21 O2B          7.4440    70.7920     9.9070 O.co2        1 PYI2202  -1.0000
    22 O3B          8.3000    72.0810    11.9520 O.co2        1 PYI2202  -1.0000
    23 C4           5.9380    70.4770    17.6360 C.ar         1 PYI2202   0.0000
    24 CM4          6.2620    71.9150    17.2120 C.3          1 PYI2202   0.0000
    25 C4A          5.6440    70.6670    22.1160 C.ar         1 PYI2202   0.0000
    26 N4A          4.4570    71.1080    21.5560 N.pl3        1 PYI2202   0.0000
    27 N3A          5.6920    70.2920    23.4140 N.ar         1 PYI2202   0.0000
    28 HM21         5.9318    69.5655    25.8055 H            1 PYI2202   0.0000
    29 HM22         7.1268    68.4978    25.4917 H            1 PYI2202   0.0000
    30 HM23         7.4930    70.0307    25.9193 H            1 PYI2202   0.0000
    31 H6A          8.8524    70.0829    21.4514 H            1 PYI2202   0.0000
    32 H7A1         7.8196    71.1164    19.6010 H            1 PYI2202   0.0000
    33 H7A2         6.3909    71.8860    19.7835 H            1 PYI2202   0.0000
    34 H7           6.1612    68.4940    20.2268 H            1 PYI2202   0.0000
    35 H8           5.1551    66.9233    18.7387 H            1 PYI2202   0.0000
    36 H9           4.6373    67.6018    16.4883 H            1 PYI2202   0.0000
    37 HM61         4.8546    70.9450    15.2333 H            1 PYI2202   0.0000
    38 HM62         4.1945    69.4731    14.9795 H            1 PYI2202   0.0000
    39 HM71         6.9338    69.1911    14.9758 H            1 PYI2202   0.0000
    40 HM72         6.5497    70.3878    13.9332 H            1 PYI2202   0.0000
    41 HM41         5.9891    72.0512    16.2597 H            1 PYI2202   0.0000
    42 HM42         5.7635    72.5552    17.7965 H            1 PYI2202   0.0000
    43 HM43         7.2447    72.0761    17.3034 H            1 PYI2202   0.0000
    44 H4A1         3.6274    71.1515    22.1126 H            1 PYI2202   0.0000
    45 H4A2         4.4293    71.3830    20.5950 H            1 PYI2202   0.0000
@<TRIPOS>BOND
     1    1    2       1
     2    2    3      ar
     3    2   27      ar
     4    3    4      ar
     5    4    5      ar
     6    5    6       1
     7    5   25      ar
     8    6    7       1
     9    7    8      ar
    10    7   23      ar
    11    8    9      ar
    12    9   10      ar
    13   10   11      ar
    14   11   12       1
    15   11   23      ar
    16   12   13       1
    17   13   14       1
    18   14   15       1
    19   15   16      ar
    20   15   17      ar
    21   15   18       1
    22   18   19       1
    23   19   20      ar
    24   19   21      ar
    25   19   22      ar
    26   23   24       1
    27   25   26       1
    28   25   27      ar
    29    1   28       1
    30    1   29       1
    31    1   30       1
    32    4   31       1
    33    6   32       1
    34    6   33       1
    35    8   34       1
    36    9   35       1
    37   10   36       1
    38   12   37       1
    39   12   38       1
    40   13   39       1
    41   13   40       1
    42   26   45       1
    43   26   44       1
    44   24   43       1
    45   24   41       1
    46   24   42       1
@<TRIPOS>SUBSTRUCTURE
     1 PYI2202     1 GROUP             4 B     PYI     0 **** PYI B2202
