@<TRIPOS>MOLECULE
3eb0_DRK_1_ligand
   46    49     1     0     0
SMALL
NO_CHARGES


@<TRIPOS>ATOM
     1 OAA         44.5420     9.9030     1.6740 O.2          1 DRK384   0.0000
     2 CAS         45.0130     9.1110     2.4800 C.2          1 DRK384   0.0000
     3 NAP         44.5640     8.9640     3.7170 N.am         1 DRK384   0.0000
     4 CAW         45.3020     8.0320     4.3230 C.ar         1 DRK384   0.0000
     5 CAH         45.2200     7.5230     5.6220 C.ar         1 DRK384   0.0000
     6 CAE         46.1070     6.5430     6.0410 C.ar         1 DRK384   0.0000
     7 CAG         47.0690     6.0770     5.1540 C.ar         1 DRK384   0.0000
     8 CAK         47.1600     6.5750     3.8550 C.ar         1 DRK384   0.0000
     9 CAZ         46.2780     7.5610     3.4240 C.ar         1 DRK384   0.0000
    10 CAV         46.0830     8.2680     2.2260 C.2          1 DRK384   0.0000
    11 CAT         46.7460     8.2560     0.9720 C.2          1 DRK384   0.0000
    12 NAQ         46.4530     9.0800    -0.0360 N.pl3        1 DRK384   0.0000
    13 CAX         47.2220     8.8640    -1.1030 C.ar         1 DRK384   0.0000
    14 CAI         47.2610     9.4720    -2.3580 C.ar         1 DRK384   0.0000
    15 CAD         48.1880     9.0540    -3.3050 C.ar         1 DRK384   0.0000
    16 CAF         49.0700     8.0140    -2.9940 C.ar         1 DRK384   0.0000
    17 CAJ         49.0290     7.3980    -1.7430 C.ar         1 DRK384   0.0000
    18 CAY         48.1000     7.8330    -0.7940 C.ar         1 DRK384   0.0000
    19 CAU         47.8010     7.4600     0.5070 C.2          1 DRK384   0.0000
    20 NAO         48.4350     6.4890     1.1490 N.2          1 DRK384   0.0000
    21 OAR         49.1120     5.5100     0.4680 O.3          1 DRK384   0.0000
    22 CAM         49.8250     4.5810     1.3340 C.3          1 DRK384   0.0000
    23 CAN         50.6430     5.3140     2.4180 C.3          1 DRK384   0.0000
    24 CBA         52.1470     5.1690     2.1930 C.3          1 DRK384   0.0000
    25 OAC         52.7760     5.3550     3.4690 O.3          1 DRK384   0.0000
    26 CAL         52.6610     6.2160     1.1600 C.3          1 DRK384   0.0000
    27 OAB         52.6980     5.7050    -0.2010 O.3          1 DRK384   0.0000
    28 HAP         43.8022     9.4656     4.1269 H            1 DRK384   0.0000
    29 HAH         44.5211     7.8658     6.2498 H            1 DRK384   0.0000
    30 HAE         46.0548     6.1764     6.9699 H            1 DRK384   0.0000
    31 HAG         47.7095     5.3698     5.4533 H            1 DRK384   0.0000
    32 HAK         47.8595     6.2234     3.2328 H            1 DRK384   0.0000
    33 HAQ         45.7389     9.7789     0.0045 H            1 DRK384   0.0000
    34 HAI         46.6214    10.2091    -2.5762 H            1 DRK384   0.0000
    35 HAD         48.2243     9.4936    -4.2025 H            1 DRK384   0.0000
    36 HAF         49.7361     7.7092    -3.6747 H            1 DRK384   0.0000
    37 HAJ         49.6588     6.6518    -1.5273 H            1 DRK384   0.0000
    38 HAM1        50.4472     4.0320     0.7759 H            1 DRK384   0.0000
    39 HAM2        49.1609     3.9815     1.7807 H            1 DRK384   0.0000
    40 HAN1        50.4115     4.9305     3.3121 H            1 DRK384   0.0000
    41 HAN2        50.4057     6.2853     2.4003 H            1 DRK384   0.0000
    42 HBA         52.3445     4.2479     1.8574 H            1 DRK384   0.0000
    43 HAC         52.9865     6.3239     3.5988 H            1 DRK384   0.0000
    44 HAL1        53.5857     6.4930     1.4211 H            1 DRK384   0.0000
    45 HAL2        52.0553     7.0113     1.1849 H            1 DRK384   0.0000
    46 HAB         53.0344     6.4183    -0.8158 H            1 DRK384   0.0000
@<TRIPOS>BOND
     1    1    2       2
     2    2    3      am
     3    2   10       1
     4    3    4       1
     5    4    5      ar
     6    4    9      ar
     7    5    6      ar
     8    6    7      ar
     9    7    8      ar
    10    8    9      ar
    11    9   10       1
    12   10   11       2
    13   11   12       1
    14   11   19       1
    15   12   13       1
    16   13   14      ar
    17   13   18      ar
    18   14   15      ar
    19   15   16      ar
    20   16   17      ar
    21   17   18      ar
    22   18   19       1
    23   19   20       2
    24   20   21       1
    25   21   22       1
    26   22   23       1
    27   23   24       1
    28   24   25       1
    29   24   26       1
    30   26   27       1
    31    3   28       1
    32    5   29       1
    33    6   30       1
    34    7   31       1
    35    8   32       1
    36   12   33       1
    37   14   34       1
    38   15   35       1
    39   16   36       1
    40   17   37       1
    41   22   38       1
    42   22   39       1
    43   23   40       1
    44   23   41       1
    45   24   42       1
    46   25   43       1
    47   26   44       1
    48   26   45       1
    49   27   46       1
@<TRIPOS>SUBSTRUCTURE
     1 DRK384      1 GROUP             4 A     DRK     0 **** DRK A 384
