@<TRIPOS>MOLECULE
5dn1_AMZ_1_ligand
   35    36     1     0     0
SMALL
NO_CHARGES


@<TRIPOS>ATOM
     1 O5           8.1440    53.7500     9.8810 O.2          1 AMZ304   0.0000
     2 C6           8.9560    52.8590    10.0840 C.2          1 AMZ304   0.0000
     3 N2          10.2410    53.0670    10.3530 N.am         1 AMZ304   0.0000
     4 C3A          8.4990    51.4560    10.0640 C.2          1 AMZ304   0.0000
     5 C7A          7.1480    51.0630     9.6640 C.2          1 AMZ304   0.0000
     6 N3           6.1660    51.9110     9.2600 N.pl3        1 AMZ304   0.0000
     7 N1           9.1190    50.3020    10.3800 N.2          1 AMZ304   0.0000
     8 C5           8.2220    49.2910    10.1890 C.2          1 AMZ304   0.0000
     9 N            7.0300    49.7540     9.7510 N.pl3        1 AMZ304   0.0000
    10 C1           5.8380    48.9450     9.4540 C.3          1 AMZ304   0.0000
    11 C2           5.9750    48.3070     8.0830 C.3          1 AMZ304   0.0000
    12 C3           5.5980    46.8590     8.3060 C.3          1 AMZ304   0.0000
    13 O2           4.2270    46.6680     7.9470 O.3          1 AMZ304   0.0000
    14 O1           5.0870    48.9360     7.1530 O.3          1 AMZ304   0.0000
    15 O            5.8300    47.9060    10.4320 O.3          1 AMZ304   0.0000
    16 C            5.7680    46.6300     9.8020 C.3          1 AMZ304   0.0000
    17 C4           7.0320    45.8410    10.1070 C.3          1 AMZ304   0.0000
    18 O3           7.2050    45.5880    11.5010 O.3          1 AMZ304   0.0000
    19 P            8.1390    44.3320    11.7850 P.3          1 AMZ304   0.0000
    20 OP1          9.4390    44.7260    11.1500 O.co2        1 AMZ304   0.0000
    21 O4           8.2010    44.0930    13.2620 O.co2        1 AMZ304  -1.0000
    22 OP2          7.3760    43.2350    11.0800 O.co2        1 AMZ304  -1.0000
    23 H1          10.8513    52.2903    10.5090 H            1 AMZ304   0.0000
    24 H2          10.5975    54.0002    10.3993 H            1 AMZ304   0.0000
    25 H3           5.2687    51.5513     9.0042 H            1 AMZ304   0.0000
    26 H4           6.3407    52.8948     9.2185 H            1 AMZ304   0.0000
    27 H5           8.4224    48.3251    10.3532 H            1 AMZ304   0.0000
    28 H6           5.0064    49.4974     9.5109 H            1 AMZ304   0.0000
    29 H7           6.9195    48.3744     7.7614 H            1 AMZ304   0.0000
    30 H8           6.1929    46.2500     7.7814 H            1 AMZ304   0.0000
    31 H9           3.8406    47.5354     7.6334 H            1 AMZ304   0.0000
    32 H10          5.6163    49.3334     6.4034 H            1 AMZ304   0.0000
    33 H11          4.9756    46.1293    10.1503 H            1 AMZ304   0.0000
    34 H12          7.8201    46.3604     9.7766 H            1 AMZ304   0.0000
    35 H13          6.9851    44.9650     9.6270 H            1 AMZ304   0.0000
@<TRIPOS>BOND
     1    1    2       2
     2    2    3      am
     3    2    4       1
     4    4    5       2
     5    4    7       1
     6    5    6       1
     7    5    9       1
     8    7    8       2
     9    8    9       1
    10    9   10       1
    11   10   11       1
    12   10   15       1
    13   11   12       1
    14   11   14       1
    15   12   13       1
    16   12   16       1
    17   15   16       1
    18   16   17       1
    19   17   18       1
    20   18   19       1
    21   19   20      ar
    22   19   21      ar
    23   19   22      ar
    24    3   23       1
    25    3   24       1
    26    6   25       1
    27    6   26       1
    28    8   27       1
    29   10   28       1
    30   11   29       1
    31   12   30       1
    32   13   31       1
    33   14   32       1
    34   16   33       1
    35   17   34       1
    36   17   35       1
@<TRIPOS>SUBSTRUCTURE
     1 AMZ304      1 GROUP             4 A     AMZ     0 **** AMZ A 304
