@<TRIPOS>MOLECULE
1yjq_NAP_1_ligand
   73    77     1     0     0
SMALL
NO_CHARGES


@<TRIPOS>ATOM
     1 PA          20.5150     0.4150     8.1740 P.3          1 NAP501   0.0000
     2 O1A         21.4610     0.7980     9.2210 O.co2        1 NAP501   0.0000
     3 O2A         20.3560    -1.0180     7.6750 O.co2        1 NAP501  -1.0000
     4 O5B         20.6250     1.4000     6.8880 O.3          1 NAP501   0.0000
     5 C5B         21.3010     2.6630     6.8960 C.3          1 NAP501   0.0000
     6 C4B         22.3260     2.6640     5.7130 C.3          1 NAP501   0.0000
     7 O4B         22.8060     4.0000     5.5350 O.3          1 NAP501   0.0000
     8 C3B         23.4920     1.7330     6.1350 C.3          1 NAP501   0.0000
     9 O3B         23.8390     0.8880     5.0510 O.3          1 NAP501   0.0000
    10 C2B         24.5840     2.7240     6.5630 C.3          1 NAP501   0.0000
    11 O2B         25.9280     2.2600     6.3110 O.3          1 NAP501   0.0000
    12 C1B         24.2840     3.9760     5.7320 C.3          1 NAP501   0.0000
    13 N9A         24.8970     5.3590     6.1220 N.pl3        1 NAP501   0.0000
    14 C8A         25.1510     5.9470     7.3130 C.2          1 NAP501   0.0000
    15 N7A         25.6120     7.1980     7.1040 N.2          1 NAP501   0.0000
    16 C5A         25.6470     7.4340     5.7720 C.ar         1 NAP501   0.0000
    17 C6A         26.0720     8.5060     4.9460 C.ar         1 NAP501   0.0000
    18 N6A         26.5540     9.6700     5.4360 N.pl3        1 NAP501   0.0000
    19 N1A         25.9330     8.3390     3.6130 N.ar         1 NAP501   0.0000
    20 C2A         25.4270     7.1980     3.0840 C.ar         1 NAP501   0.0000
    21 N3A         25.0440     6.1240     3.7930 N.ar         1 NAP501   0.0000
    22 C4A         25.1600     6.2440     5.1490 C.ar         1 NAP501   0.0000
    23 O3          19.1090     1.0220     8.7010 O.3          1 NAP501   0.0000
    24 PN          17.5430     0.6120     8.2170 P.3          1 NAP501   0.0000
    25 O1N         17.0930    -0.6190     8.9480 O.co2        1 NAP501   0.0000
    26 O2N         17.4870     0.5860     6.7320 O.co2        1 NAP501  -1.0000
    27 O5D         16.7540     1.7680     8.9700 O.3          1 NAP501   0.0000
    28 C5D         16.8560     3.1250     8.4860 C.3          1 NAP501   0.0000
    29 C4D         15.7990     4.0180     9.1290 C.3          1 NAP501   0.0000
    30 O4D         14.5440     3.3990     8.7240 O.3          1 NAP501   0.0000
    31 C3D         15.8610     3.8930    10.6450 C.3          1 NAP501   0.0000
    32 O3D         15.4680     5.1240    11.2430 O.3          1 NAP501   0.0000
    33 C2D         14.8640     2.7910    11.0430 C.3          1 NAP501   0.0000
    34 O2D         14.4030     2.9530    12.4100 O.3          1 NAP501   0.0000
    35 C1D         13.7940     3.0990     9.9920 C.3          1 NAP501   0.0000
    36 N1N         12.9570     1.9650     9.6990 N.ar         1 NAP501   1.0000
    37 C2N         13.5330     0.7150     9.4220 C.ar         1 NAP501   0.0000
    38 C3N         12.7320    -0.3700     9.1190 C.ar         1 NAP501   0.0000
    39 C7N         13.3150    -1.7950     8.8120 C.2          1 NAP501   0.0000
    40 O7N         12.5780    -2.7890     8.9270 O.2          1 NAP501   0.0000
    41 N7N         14.6460    -1.8660     8.5020 N.am         1 NAP501   0.0000
    42 C4N         11.3590    -0.1700     9.1420 C.ar         1 NAP501   0.0000
    43 C5N         10.7860     1.0450     9.4450 C.ar         1 NAP501   0.0000
    44 C6N         11.5910     2.1200     9.7060 C.ar         1 NAP501   0.0000
    45 P2B         26.8520     2.1100     7.6450 P.3          1 NAP501   0.0000
    46 O1X         28.0980     1.5380     6.9050 O.co2        1 NAP501   0.0000
    47 O2X         27.2050     3.6070     8.2480 O.co2        1 NAP501  -1.0000
    48 O3X         26.1000     1.3030     8.7350 O.co2        1 NAP501  -1.0000
    49 H5B1        21.7827     2.7856     7.7637 H            1 NAP501   0.0000
    50 H5B2        20.6400     3.4035     6.7742 H            1 NAP501   0.0000
    51 H4B         21.8955     2.3304     4.8744 H            1 NAP501   0.0000
    52 H3B         23.2138     1.1784     6.9192 H            1 NAP501   0.0000
    53 H5          24.5910     0.2878     5.3237 H            1 NAP501   0.0000
    54 H2B         24.4805     2.9356     7.5349 H            1 NAP501   0.0000
    55 H1B         24.6588     3.7770     4.8265 H            1 NAP501   0.0000
    56 H8A         25.0181     5.5216     8.2082 H            1 NAP501   0.0000
    57 H6A1        26.8406    10.3954     4.8102 H            1 NAP501   0.0000
    58 H6A2        26.6240     9.8057     6.4243 H            1 NAP501   0.0000
    59 H2A         25.3317     7.1527     2.0896 H            1 NAP501   0.0000
    60 H5D1        16.7274     3.1287     7.4943 H            1 NAP501   0.0000
    61 H5D2        17.7636     3.4828     8.7057 H            1 NAP501   0.0000
    62 H4D         15.8688     4.9678     8.8239 H            1 NAP501   0.0000
    63 H3D         16.7855     3.6458    10.9352 H            1 NAP501   0.0000
    64 H16         15.9398     5.2353    12.1176 H            1 NAP501   0.0000
    65 H2D         15.2566     1.8823    10.9011 H            1 NAP501   0.0000
    66 H18         15.1203     3.3879    12.9543 H            1 NAP501   0.0000
    67 H1D         13.2409     3.8844    10.2700 H            1 NAP501   0.0000
    68 H2N         14.5271     0.6091     9.4440 H            1 NAP501   0.0000
    69 H7N1        15.0655    -2.7506     8.2984 H            1 NAP501   0.0000
    70 H7N2        15.1992    -1.0332     8.4791 H            1 NAP501   0.0000
    71 H4N         10.7596    -0.9417     8.9293 H            1 NAP501   0.0000
    72 H5N          9.7910     1.1406     9.4740 H            1 NAP501   0.0000
    73 H6N         11.1878     3.0141     9.9009 H            1 NAP501   0.0000
@<TRIPOS>BOND
     1    1    2      ar
     2    1    3      ar
     3    1    4       1
     4    1   23       1
     5    4    5       1
     6    5    6       1
     7    6    7       1
     8    6    8       1
     9    7   12       1
    10    8    9       1
    11    8   10       1
    12   10   11       1
    13   10   12       1
    14   11   45       1
    15   12   13       1
    16   13   14       1
    17   13   22       1
    18   14   15       2
    19   15   16       1
    20   16   17      ar
    21   16   22      ar
    22   17   18       1
    23   17   19      ar
    24   19   20      ar
    25   20   21      ar
    26   21   22      ar
    27   23   24       1
    28   24   25      ar
    29   24   26      ar
    30   24   27       1
    31   27   28       1
    32   28   29       1
    33   29   30       1
    34   29   31       1
    35   30   35       1
    36   31   32       1
    37   31   33       1
    38   33   34       1
    39   33   35       1
    40   35   36       1
    41   36   37      ar
    42   36   44      ar
    43   37   38      ar
    44   38   39       1
    45   38   42      ar
    46   39   40       2
    47   39   41      am
    48   42   43      ar
    49   43   44      ar
    50   45   46      ar
    51   45   47      ar
    52   45   48      ar
    53   43   72       1
    54    5   49       1
    55    5   50       1
    56    6   51       1
    57    8   52       1
    58    9   53       1
    59   10   54       1
    60   12   55       1
    61   14   56       1
    62   18   57       1
    63   18   58       1
    64   20   59       1
    65   44   73       1
    66   28   60       1
    67   28   61       1
    68   29   62       1
    69   31   63       1
    70   32   64       1
    71   33   65       1
    72   34   66       1
    73   35   67       1
    74   37   68       1
    75   41   69       1
    76   41   70       1
    77   42   71       1
@<TRIPOS>SUBSTRUCTURE
     1 NAP501      1 GROUP             4 A     NAP     0 **** NAP A 501
