@<TRIPOS>MOLECULE
3op5_REB_2_ligand
   42    45     1     0     0
SMALL
NO_CHARGES


@<TRIPOS>ATOM
     1 C10         26.1290    -9.2450    60.1760 C.2          1 REB365   0.0000
     2 N12         27.7440    -9.8290    58.9000 N.pl3        1 REB365   0.0000
     3 C15         26.6470   -12.1670    61.7640 C.3          1 REB365   0.0000
     4 C20         26.0070    -9.2780    64.3040 C.ar         1 REB365   0.0000
     5 C21         25.2840   -10.3210    64.9790 C.ar         1 REB365   0.0000
     6 C22         23.7940   -10.3170    64.9840 C.ar         1 REB365   0.0000
     7 C24         26.1420   -11.4100    65.6530 C.3          1 REB365   0.0000
     8 C02         23.7800    -5.2020    59.3050 C.ar         1 REB365   0.0000
     9 C03         22.8170    -4.7310    60.2230 C.ar         1 REB365   0.0000
    10 N04         22.6140    -5.3610    61.4620 N.ar         1 REB365   0.0000
    11 C05         23.3120    -6.4330    61.8100 C.ar         1 REB365   0.0000
    12 N06         24.2360    -6.9210    60.9010 N.ar         1 REB365   0.0000
    13 C07         24.4980    -6.3740    59.6880 C.ar         1 REB365   0.0000
    14 N08         25.5700    -7.0970    59.0040 N.pl3        1 REB365   0.0000
    15 C09         26.3440    -8.2530    59.1660 C.2          1 REB365   0.0000
    16 C11         27.0660   -10.1990    59.9240 C.2          1 REB365   0.0000
    17 N13         27.3080    -8.6550    58.4220 N.2          1 REB365   0.0000
    18 C14         27.3100   -11.4270    60.6640 C.3          1 REB365   0.0000
    19 C16         27.9420   -11.4310    61.9990 C.3          1 REB365   0.0000
    20 N17         23.2410    -7.1410    62.9660 N.pl3        1 REB365   0.0000
    21 C18         23.9180    -8.1990    63.6310 C.ar         1 REB365   0.0000
    22 C19         25.3250    -8.2340    63.6410 C.ar         1 REB365   0.0000
    23 C23         23.1170    -9.2230    64.2900 C.ar         1 REB365   0.0000
    24 C25         25.6740   -12.7160    65.1160 C.1          1 REB365   0.0000
    25 N26         25.2080   -13.6230    64.5820 N.1          1 REB365   0.0000
    26 H1          25.4434    -9.2382    60.9039 H            1 REB365   0.0000
    27 H2          26.6317   -13.1669    61.7586 H            1 REB365   0.0000
    28 H3          25.7951   -11.8227    62.1587 H            1 REB365   0.0000
    29 H4          27.0069    -9.2918    64.3039 H            1 REB365   0.0000
    30 H5          23.2757   -11.0369    65.4456 H            1 REB365   0.0000
    31 H6          26.0187   -11.3811    66.6449 H            1 REB365   0.0000
    32 H7          27.1078   -11.2731    65.4330 H            1 REB365   0.0000
    33 H8          23.9497    -4.7400    58.4345 H            1 REB365   0.0000
    34 H9          22.2666    -3.9305    59.9860 H            1 REB365   0.0000
    35 H10         25.8295    -6.6202    58.1641 H            1 REB365   0.0000
    36 H11         27.7879   -12.0768    60.0729 H            1 REB365   0.0000
    37 H12         28.7882   -11.9417    62.1514 H            1 REB365   0.0000
    38 H13         27.9516   -10.5975    62.5514 H            1 REB365   0.0000
    39 H14         22.4751    -6.8181    63.5219 H            1 REB365   0.0000
    40 H15         25.8441    -7.5165    63.1766 H            1 REB365   0.0000
    41 H16         22.1183    -9.1778    64.2677 H            1 REB365   0.0000
    42 H17         28.5019   -10.3503    58.5079 H            1 REB365   0.0000
@<TRIPOS>BOND
     1    1   15       1
     2    1   16       2
     3    2   16       1
     4    2   17       1
     5    3   18       1
     6    3   19       1
     7    4    5      ar
     8    4   22      ar
     9    5    6      ar
    10    5    7       1
    11    6   23      ar
    12    7   24       1
    13    8    9      ar
    14    8   13      ar
    15    9   10      ar
    16   10   11      ar
    17   11   12      ar
    18   11   20       1
    19   12   13      ar
    20   13   14       1
    21   14   15       1
    22   15   17       2
    23   16   18       1
    24   18   19       1
    25   20   21       1
    26   21   22      ar
    27   21   23      ar
    28   24   25       3
    29    1   26       1
    30    3   27       1
    31    3   28       1
    32    4   29       1
    33    6   30       1
    34    7   31       1
    35    7   32       1
    36    8   33       1
    37    9   34       1
    38   14   35       1
    39   23   41       1
    40   18   36       1
    41   19   37       1
    42   19   38       1
    43   20   39       1
    44   22   40       1
    45    2   42       1
@<TRIPOS>SUBSTRUCTURE
     1 REB365      1 GROUP             4 B     REB     0 **** REB B 365
