@<TRIPOS>MOLECULE
3mdz_EZL_1_ligand
   25    26     1     0     0
SMALL
NO_CHARGES


@<TRIPOS>ATOM
     1 N1          15.8730    12.5730    80.9780 N.3          1 EZL264  -1.0000
     2 C2          15.2480     7.8930    81.7440 C.ar         1 EZL264   0.0000
     3 C3          14.0870     7.6460    80.9600 C.ar         1 EZL264   0.0000
     4 C4          13.4120     6.4610    81.0850 C.ar         1 EZL264   0.0000
     5 C5          13.8010     5.4700    81.9760 C.ar         1 EZL264   0.0000
     6 C8          13.6890     3.1060    82.2510 C.3          1 EZL264   0.0000
     7 O1          16.7720    11.2790    79.0280 O.2          1 EZL264   0.0000
     8 O2          14.4110    11.6960    79.0050 O.2          1 EZL264   0.0000
     9 S1          15.5860    11.4040    79.8610 S.o2         1 EZL264   0.0000
    10 C1          15.1850     9.8450    80.5200 C.2          1 EZL264   0.0000
    11 N2          15.8370     9.1190    81.4750 N.2          1 EZL264   0.0000
    12 S2          13.7630     8.9930    79.9280 S.3          1 EZL264   0.0000
    13 C6          14.9260     5.6800    82.7960 C.ar         1 EZL264   0.0000
    14 C7          15.6290     6.8790    82.6620 C.ar         1 EZL264   0.0000
    15 O3          12.9920     4.3580    82.0000 O.3          1 EZL264   0.0000
    16 C9          12.6010     2.0430    81.9650 C.3          1 EZL264   0.0000
    17 H1          16.8503    12.6004    81.1882 H            1 EZL264   0.0000
    18 H2          12.6076     6.3034    80.5122 H            1 EZL264   0.0000
    19 H3          14.0038     3.0530    83.1987 H            1 EZL264   0.0000
    20 H4          14.4687     2.9981    81.6342 H            1 EZL264   0.0000
    21 H5          15.2144     4.9879    83.4577 H            1 EZL264   0.0000
    22 H6          16.4338     7.0297    83.2361 H            1 EZL264   0.0000
    23 H7          12.9812     1.1295    82.1100 H            1 EZL264   0.0000
    24 H8          11.8270     2.1838    82.5823 H            1 EZL264   0.0000
    25 H9          12.2919     2.1289    81.0179 H            1 EZL264   0.0000
@<TRIPOS>BOND
     1    1    9       1
     2    2    3      ar
     3    2   11       1
     4    2   14      ar
     5    3    4      ar
     6    3   12       1
     7    4    5      ar
     8    5   13      ar
     9    5   15       1
    10    6   15       1
    11    6   16       1
    12    7    9       2
    13    8    9       2
    14    9   10       1
    15   10   11       2
    16   10   12       1
    17   13   14      ar
    18   16   25       1
    19    1   17       1
    20    4   18       1
    21    6   19       1
    22    6   20       1
    23   13   21       1
    24   14   22       1
    25   16   23       1
    26   16   24       1
@<TRIPOS>SUBSTRUCTURE
     1 EZL264      1 GROUP             4 A     EZL     0 **** EZL A 264
