@<TRIPOS>MOLECULE
2l1r_SXK_1_ligand
   28    29     1     0     0
SMALL
NO_CHARGES


@<TRIPOS>ATOM
     1 OAA         59.7710    11.3050    -1.3200 O.co2        1 SXK91    0.0000
     2 OAB         60.0150     9.4230    -0.1670 O.co2        1 SXK91   -1.0000
     3 CAE         56.2250     1.1560    -0.4550 C.ar         1 SXK91    0.0000
     4 CAF         57.0950     6.5680    -2.9860 C.ar         1 SXK91    0.0000
     5 CAG         58.1650     6.5560    -0.7640 C.ar         1 SXK91    0.0000
     6 CAH         56.8890     5.1730    -2.8990 C.ar         1 SXK91    0.0000
     7 CAI         57.9650     5.1630    -0.6690 C.ar         1 SXK91    0.0000
     8 CAJ         56.4110     2.5580    -0.5510 C.ar         1 SXK91    0.0000
     9 CAK         57.4520     0.8170    -2.5460 C.ar         1 SXK91    0.0000
    10 CAL         59.1620     9.2310    -2.3760 C.3          1 SXK91    0.0000
    11 OAM         57.8790     8.6070    -2.1270 O.3          1 SXK91    0.0000
    12 CAN         59.6920    10.0570    -1.1920 C.2          1 SXK91    0.0000
    13 CAO         56.7450     0.3080    -1.4500 C.ar         1 SXK91    0.0000
    14 CAP         57.7330     7.2570    -1.9150 C.ar         1 SXK91    0.0000
    15 CAQ         57.6440     2.2160    -2.6510 C.ar         1 SXK91    0.0000
    16 CAR         57.3270     4.4690    -1.7380 C.ar         1 SXK91    0.0000
    17 CAS         57.1240     3.0800    -1.6490 C.ar         1 SXK91    0.0000
    18 FCC         56.5580    -1.0350    -1.3410 F            1 SXK91    0.0000
    19 FDD         58.3370     2.6900    -3.7320 F            1 SXK91    0.0000
    20 HAE         55.7243     0.7698     0.3197 H            1 SXK91    0.0000
    21 HAF         56.7939     7.0700    -3.7968 H            1 SXK91    0.0000
    22 HAG         58.6124     7.0486    -0.0175 H            1 SXK91    0.0000
    23 HAH         56.4395     4.6827    -3.6457 H            1 SXK91    0.0000
    24 HAI         58.2690     4.6654     0.1434 H            1 SXK91    0.0000
    25 HAJ         56.0417     3.1679     0.1502 H            1 SXK91    0.0000
    26 HAK         57.8162     0.2013    -3.2448 H            1 SXK91    0.0000
    27 HAL1        59.0697     9.8366    -3.1664 H            1 SXK91    0.0000
    28 HAL2        59.8269     8.5130    -2.5820 H            1 SXK91    0.0000
@<TRIPOS>BOND
     1    1   12      ar
     2    2   12      ar
     3    3    8      ar
     4    3   13      ar
     5    4    6      ar
     6    4   14      ar
     7    5    7      ar
     8    5   14      ar
     9    6   16      ar
    10    7   16      ar
    11    8   17      ar
    12    9   13      ar
    13    9   15      ar
    14   10   11       1
    15   10   12       1
    16   11   14       1
    17   13   18       1
    18   15   17      ar
    19   15   19       1
    20   16   17       1
    21   10   28       1
    22    3   20       1
    23    4   21       1
    24    5   22       1
    25    6   23       1
    26    7   24       1
    27    8   25       1
    28    9   26       1
    29   10   27       1
@<TRIPOS>SUBSTRUCTURE
     1 SXK91       1 GROUP             4 A     SXK     0 **** SXK A  91
