@<TRIPOS>MOLECULE
5icf_SAH_2_ligand
   46    48     1     0     0
SMALL
NO_CHARGES


@<TRIPOS>ATOM
     1 N            7.4340    24.8000     2.7020 N.4          1 SAH401   1.0000
     2 CA           6.1810    24.0630     2.2810 C.3          1 SAH401   0.0000
     3 CB           6.5210    23.0150     1.2130 C.3          1 SAH401   0.0000
     4 CG           7.4670    21.9120     1.6730 C.3          1 SAH401   0.0000
     5 SD           7.6100    20.6150     0.4370 S.3          1 SAH401   0.0000
     6 C            5.5300    23.3600     3.4970 C.2          1 SAH401   0.0000
     7 O            4.2820    23.1060     3.5150 O.co2        1 SAH401   0.0000
     8 OXT          6.1960    22.9990     4.4470 O.co2        1 SAH401  -1.0000
     9 C5'          9.0980    21.0640    -0.4180 C.3          1 SAH401   0.0000
    10 C4'          8.8800    22.3250    -1.3490 C.3          1 SAH401   0.0000
    11 O4'         10.1990    22.5530    -1.9590 O.3          1 SAH401   0.0000
    12 C3'          7.9310    21.9910    -2.5370 C.3          1 SAH401   0.0000
    13 O3'          6.8850    22.9550    -2.5840 O.3          1 SAH401   0.0000
    14 C2'          8.8210    21.9780    -3.7780 C.3          1 SAH401   0.0000
    15 O2'          8.1510    22.4110    -4.9640 O.3          1 SAH401   0.0000
    16 C1'          9.9090    22.9840    -3.3310 C.3          1 SAH401   0.0000
    17 N9          11.1240    22.8350    -4.1370 N.pl3        1 SAH401   0.0000
    18 C8          11.7450    21.7190    -4.5380 C.2          1 SAH401   0.0000
    19 N7          12.8670    22.0340    -5.2390 N.2          1 SAH401   0.0000
    20 C5          12.9250    23.3960    -5.3200 C.ar         1 SAH401   0.0000
    21 C6          13.8640    24.3570    -5.9500 C.ar         1 SAH401   0.0000
    22 N6          14.9370    23.8960    -6.6450 N.pl3        1 SAH401   0.0000
    23 N1          13.6380    25.6790    -5.6930 N.ar         1 SAH401   0.0000
    24 C2          12.5360    26.0840    -5.0430 C.ar         1 SAH401   0.0000
    25 N3          11.6350    25.2170    -4.4480 N.ar         1 SAH401   0.0000
    26 C4          11.8360    23.9050    -4.5530 C.ar         1 SAH401   0.0000
    27 H1           7.2028    25.4803     3.3976 H            1 SAH401   0.0000
    28 H2           8.0930    24.1489     3.0786 H            1 SAH401   0.0000
    29 HA           5.5308    24.7190     1.8978 H            1 SAH401   0.0000
    30 HB1          6.9459    23.4861     0.4400 H            1 SAH401   0.0000
    31 HB2          5.6676    22.5876     0.9146 H            1 SAH401   0.0000
    32 HG1          7.1168    21.5157     2.5217 H            1 SAH401   0.0000
    33 HG2          8.3712    22.3062     1.8374 H            1 SAH401   0.0000
    34 H5'1         9.3935    20.2924    -0.9813 H            1 SAH401   0.0000
    35 H5'2         9.8068    21.2764     0.2547 H            1 SAH401   0.0000
    36 H4'          8.5651    23.1209    -0.8319 H            1 SAH401   0.0000
    37 H3'          7.5378    21.0816    -2.4016 H            1 SAH401   0.0000
    38 H12          7.2768    23.8660    -2.7128 H            1 SAH401   0.0000
    39 H2'          9.2187    21.0705    -3.9131 H            1 SAH401   0.0000
    40 H14          7.8246    23.3480    -4.8393 H            1 SAH401   0.0000
    41 H1'          9.5686    23.9240    -3.3541 H            1 SAH401   0.0000
    42 H16         11.4297    20.7889    -4.3495 H            1 SAH401   0.0000
    43 H17         15.5716    24.5410    -7.0707 H            1 SAH401   0.0000
    44 H18         15.0919    22.9118    -6.7307 H            1 SAH401   0.0000
    45 H19         12.3556    27.0659    -4.9851 H            1 SAH401   0.0000
    46 H20          7.8341    25.2578     1.9081 H            1 SAH401   0.0000
@<TRIPOS>BOND
     1    1    2       1
     2    2    3       1
     3    2    6       1
     4    3    4       1
     5    4    5       1
     6    5    9       1
     7    6    7      ar
     8    6    8      ar
     9    9   10       1
    10   10   11       1
    11   10   12       1
    12   11   16       1
    13   12   13       1
    14   12   14       1
    15   14   15       1
    16   14   16       1
    17   16   17       1
    18   17   18       1
    19   17   26       1
    20   18   19       2
    21   19   20       1
    22   20   21      ar
    23   20   26      ar
    24   21   22       1
    25   21   23      ar
    26   23   24      ar
    27   24   25      ar
    28   25   26      ar
    29    1   27       1
    30    1   28       1
    31    2   29       1
    32    3   30       1
    33    3   31       1
    34    4   32       1
    35    4   33       1
    36    1   46       1
    37    9   34       1
    38    9   35       1
    39   10   36       1
    40   12   37       1
    41   13   38       1
    42   14   39       1
    43   15   40       1
    44   16   41       1
    45   18   42       1
    46   22   43       1
    47   22   44       1
    48   24   45       1
@<TRIPOS>SUBSTRUCTURE
     1 SAH401      1 GROUP             4 A     SAH     0 **** SAH A 401
