@<TRIPOS>MOLECULE
4g56_SAH_2_ligand
   46    48     1     0     0
SMALL
NO_CHARGES


@<TRIPOS>ATOM
     1 N           99.4300    20.0220    70.4290 N.4          1 SAH701   1.0000
     2 CA          99.2140    21.3170    69.7240 C.3          1 SAH701   0.0000
     3 CB          97.7400    21.4590    69.3580 C.3          1 SAH701   0.0000
     4 CG          97.2860    20.2660    68.5250 C.3          1 SAH701   0.0000
     5 SD          95.7280    20.5950    67.7680 S.3          1 SAH701   0.0000
     6 C           99.6360    22.4440    70.6200 C.2          1 SAH701   0.0000
     7 O           99.9470    22.2370    71.7940 O.co2        1 SAH701   0.0000
     8 OXT         99.6870    23.6020    70.2060 O.co2        1 SAH701  -1.0000
     9 C5'         95.6180    19.1810    66.7230 C.3          1 SAH701   0.0000
    10 C4'         94.3800    19.2670    65.8390 C.3          1 SAH701   0.0000
    11 O4'         94.5000    18.3340    64.7620 O.3          1 SAH701   0.0000
    12 C3'         93.1060    18.9270    66.5960 C.3          1 SAH701   0.0000
    13 O3'         92.1690    19.9970    66.4600 O.3          1 SAH701   0.0000
    14 C2'         92.5520    17.6820    65.9330 C.3          1 SAH701   0.0000
    15 O2'         91.1470    17.8200    65.7040 O.3          1 SAH701   0.0000
    16 C1'         93.2940    17.5830    64.6110 C.3          1 SAH701   0.0000
    17 N9          93.6040    16.1670    64.2940 N.pl3        1 SAH701   0.0000
    18 C8          94.4550    15.3740    64.9710 C.2          1 SAH701   0.0000
    19 N7          94.5080    14.1330    64.4210 N.2          1 SAH701   0.0000
    20 C5          93.6740    14.1230    63.3660 C.ar         1 SAH701   0.0000
    21 C6          93.2540    13.1340    62.3450 C.ar         1 SAH701   0.0000
    22 N6          93.7530    11.8740    62.3450 N.pl3        1 SAH701   0.0000
    23 N1          92.3570    13.5310    61.4150 N.ar         1 SAH701   0.0000
    24 C2          91.8550    14.7800    61.4040 C.ar         1 SAH701   0.0000
    25 N3          92.1900    15.7270    62.2990 N.ar         1 SAH701   0.0000
    26 C4          93.0780    15.4650    63.2880 C.ar         1 SAH701   0.0000
    27 H1         100.3965    19.9300    70.6684 H            1 SAH701   0.0000
    28 H2          98.8767    19.9994    71.2617 H            1 SAH701   0.0000
    29 HA          99.7647    21.3346    68.8895 H            1 SAH701   0.0000
    30 HB1         97.6102    22.2985    68.8304 H            1 SAH701   0.0000
    31 HB2         97.1948    21.5037    70.1951 H            1 SAH701   0.0000
    32 HG1         97.2010    19.4648    69.1173 H            1 SAH701   0.0000
    33 HG2         97.9651    20.0842    67.8138 H            1 SAH701   0.0000
    34 H5'1        95.5627    18.3577    67.2878 H            1 SAH701   0.0000
    35 H5'2        96.4327    19.1346    66.1450 H            1 SAH701   0.0000
    36 H4'         94.3049    20.1920    65.4666 H            1 SAH701   0.0000
    37 H3'         93.3050    18.7535    67.5605 H            1 SAH701   0.0000
    38 H12         91.9551    20.1319    65.4925 H            1 SAH701   0.0000
    39 H2'         92.7355    16.8765    66.4964 H            1 SAH701   0.0000
    40 H14         90.9944    18.2258    64.8029 H            1 SAH701   0.0000
    41 H1'         92.7379    17.9793    63.8804 H            1 SAH701   0.0000
    42 H16         94.9791    15.6605    65.7730 H            1 SAH701   0.0000
    43 H17         93.4585    11.2196    61.6486 H            1 SAH701   0.0000
    44 H18         94.4157    11.5987    63.0414 H            1 SAH701   0.0000
    45 H19         91.1959    15.0173    60.6904 H            1 SAH701   0.0000
    46 H20         99.1617    19.2676    69.8300 H            1 SAH701   0.0000
@<TRIPOS>BOND
     1    1    2       1
     2    2    3       1
     3    2    6       1
     4    3    4       1
     5    4    5       1
     6    5    9       1
     7    6    7      ar
     8    6    8      ar
     9    9   10       1
    10   10   11       1
    11   10   12       1
    12   11   16       1
    13   12   13       1
    14   12   14       1
    15   14   15       1
    16   14   16       1
    17   16   17       1
    18   17   18       1
    19   17   26       1
    20   18   19       2
    21   19   20       1
    22   20   21      ar
    23   20   26      ar
    24   21   22       1
    25   21   23      ar
    26   23   24      ar
    27   24   25      ar
    28   25   26      ar
    29    1   27       1
    30    1   28       1
    31    2   29       1
    32    3   30       1
    33    3   31       1
    34    4   32       1
    35    4   33       1
    36    1   46       1
    37    9   34       1
    38    9   35       1
    39   10   36       1
    40   12   37       1
    41   13   38       1
    42   14   39       1
    43   15   40       1
    44   16   41       1
    45   18   42       1
    46   22   43       1
    47   22   44       1
    48   24   45       1
@<TRIPOS>SUBSTRUCTURE
     1 SAH701      1 GROUP             4 C     SAH     0 **** SAH C 701
