@<TRIPOS>MOLECULE
3myu_VIB_1_ligand
   35    36     1     0     0
SMALL
NO_CHARGES


@<TRIPOS>ATOM
     1 CM2          7.3720    32.4670    37.8460 C.3          1 VIB500   0.0000
     2 N4A          7.1120    31.8910    33.0170 N.pl3        1 VIB500   0.0000
     3 CM4          1.4130    31.2720    32.6770 C.3          1 VIB500   0.0000
     4 O1           0.6950    28.8980    30.2110 O.3          1 VIB500   0.0000
     5 C7           0.5710    27.7890    31.0280 C.3          1 VIB500   0.0000
     6 C6           0.7170    28.2300    32.4560 C.3          1 VIB500   0.0000
     7 C2           4.6150    29.5150    33.0040 C.2          1 VIB500   0.0000
     8 S1           3.6470    28.0440    32.8050 S.3          1 VIB500   0.0000
     9 C5           2.0820    28.8490    32.6450 C.2          1 VIB500   0.0000
    10 C4           2.4500    30.1870    32.7590 C.2          1 VIB500   0.0000
    11 N3           3.7280    30.4760    32.9440 N.2          1 VIB500   1.0000
    12 C7A          4.1650    31.8800    33.0680 C.3          1 VIB500   0.0000
    13 C4A          6.4350    32.0600    34.2710 C.ar         1 VIB500   0.0000
    14 N3A          7.1610    32.1960    35.4170 N.ar         1 VIB500   0.0000
    15 C2A          6.5430    32.3370    36.5840 C.ar         1 VIB500   0.0000
    16 N1A          5.2010    32.3520    36.6740 N.ar         1 VIB500   0.0000
    17 C6A          4.4150    32.2300    35.5780 C.ar         1 VIB500   0.0000
    18 C5A          5.0160    32.0750    34.3220 C.ar         1 VIB500   0.0000
    19 HM21         6.7652    32.5651    38.6348 H            1 VIB500   0.0000
    20 HM22         7.9367    31.6496    37.9595 H            1 VIB500   0.0000
    21 HM23         7.9611    33.2721    37.7764 H            1 VIB500   0.0000
    22 H4A1         6.5844    31.7908    32.1735 H            1 VIB500   0.0000
    23 H4A2         8.1114    31.8734    32.9867 H            1 VIB500   0.0000
    24 HM41         1.8545    32.1635    32.7786 H            1 VIB500   0.0000
    25 HM42         0.9529    31.2270    31.7903 H            1 VIB500   0.0000
    26 HM43         0.7416    31.1473    33.4076 H            1 VIB500   0.0000
    27 H9           1.5933    29.3150    30.3491 H            1 VIB500   0.0000
    28 H10          1.2846    27.1247    30.8055 H            1 VIB500   0.0000
    29 H11         -0.3273    27.3705    30.8944 H            1 VIB500   0.0000
    30 H12          0.6206    27.4403    33.0619 H            1 VIB500   0.0000
    31 H13          0.0107    28.9042    32.6722 H            1 VIB500   0.0000
    32 H14          5.6038    29.5926    33.1318 H            1 VIB500   0.0000
    33 H7A1         3.3597    32.4703    33.1233 H            1 VIB500   0.0000
    34 H7A2         4.7051    32.1275    32.2636 H            1 VIB500   0.0000
    35 H6A          3.4189    32.2503    35.6640 H            1 VIB500   0.0000
@<TRIPOS>BOND
     1    1   15       1
     2    2   13       1
     3    3   10       1
     4    4    5       1
     5    5    6       1
     6    6    9       1
     7    7    8       1
     8    7   11       2
     9    8    9       1
    10    9   10       2
    11   10   11       1
    12   11   12       1
    13   12   18       1
    14   13   14      ar
    15   13   18      ar
    16   14   15      ar
    17   15   16      ar
    18   16   17      ar
    19   17   18      ar
    20    1   19       1
    21    1   20       1
    22    1   21       1
    23    2   22       1
    24    2   23       1
    25    3   24       1
    26    3   25       1
    27    3   26       1
    28    4   27       1
    29    5   28       1
    30    5   29       1
    31    6   30       1
    32    6   31       1
    33    7   32       1
    34   12   33       1
    35   12   34       1
    36   17   35       1
@<TRIPOS>SUBSTRUCTURE
     1 VIB500      1 GROUP             4 A     VIB     0 **** VIB A 500
