@<TRIPOS>MOLECULE
2jiz_ADP_6_ligand
   39    41     1     0     0
SMALL
NO_CHARGES


@<TRIPOS>ATOM
     1 PB         -32.1830    35.7430    -1.9050 P.3          1 ADP1476   0.0000
     2 O1B        -31.7150    34.9280    -0.7370 O.co2        1 ADP1476   0.0000
     3 O2B        -31.0510    36.2840    -2.7340 O.co2        1 ADP1476  -1.0000
     4 O3B        -33.2710    35.0810    -2.7100 O.co2        1 ADP1476  -1.0000
     5 PA         -34.4100    37.4670    -1.1740 P.3          1 ADP1476   0.0000
     6 O1A        -34.8690    37.8030    -2.5690 O.co2        1 ADP1476   0.0000
     7 O2A        -35.1920    36.4530    -0.3900 O.co2        1 ADP1476  -1.0000
     8 O3A        -32.8340    37.0460    -1.1830 O.3          1 ADP1476   0.0000
     9 O5'        -34.2900    38.8380    -0.3530 O.3          1 ADP1476   0.0000
    10 C5'        -33.9220    38.7620     1.0280 C.3          1 ADP1476   0.0000
    11 C4'        -34.5830    39.8850     1.8050 C.3          1 ADP1476   0.0000
    12 O4'        -33.9590    41.1090     1.4020 O.3          1 ADP1476   0.0000
    13 C3'        -36.0620    40.0720     1.4720 C.3          1 ADP1476   0.0000
    14 O3'        -36.9590    39.2640     2.2340 O.3          1 ADP1476   0.0000
    15 C2'        -36.2710    41.5430     1.7370 C.3          1 ADP1476   0.0000
    16 O2'        -36.5080    41.7280     3.1300 O.3          1 ADP1476   0.0000
    17 C1'        -34.9350    42.1560     1.3490 C.3          1 ADP1476   0.0000
    18 N9         -35.0340    42.6080    -0.0500 N.pl3        1 ADP1476   0.0000
    19 C8         -34.5790    41.9210    -1.1200 C.2          1 ADP1476   0.0000
    20 N7         -34.8100    42.5980    -2.2680 N.2          1 ADP1476   0.0000
    21 C5         -35.4450    43.7420    -1.9300 C.ar         1 ADP1476   0.0000
    22 C6         -35.9640    44.9150    -2.6650 C.ar         1 ADP1476   0.0000
    23 N6         -35.8750    44.9840    -4.0190 N.pl3        1 ADP1476   0.0000
    24 N1         -36.5290    45.8990    -1.9410 N.ar         1 ADP1476   0.0000
    25 C2         -36.6250    45.8340    -0.5980 C.ar         1 ADP1476   0.0000
    26 N3         -36.1630    44.8130     0.1420 N.ar         1 ADP1476   0.0000
    27 C4         -35.5740    43.7530    -0.4650 C.ar         1 ADP1476   0.0000
    28 H5'1       -32.9287    38.8423     1.1107 H            1 ADP1476   0.0000
    29 H5'2       -34.2175    37.8826     1.4013 H            1 ADP1476   0.0000
    30 H4'        -34.4644    39.7429     2.7877 H            1 ADP1476   0.0000
    31 H3'        -36.2042    39.8910     0.4989 H            1 ADP1476   0.0000
    32 H5         -37.4816    38.6744     1.6181 H            1 ADP1476   0.0000
    33 H2'        -37.0185    41.9128     1.1852 H            1 ADP1476   0.0000
    34 H7         -36.9530    40.9140     3.5034 H            1 ADP1476   0.0000
    35 H1'        -34.6913    42.9108     1.9580 H            1 ADP1476   0.0000
    36 H9         -34.1302    41.0288    -1.0701 H            1 ADP1476   0.0000
    37 H10        -36.2303    45.7835    -4.5033 H            1 ADP1476   0.0000
    38 H11        -35.4542    44.2353    -4.5312 H            1 ADP1476   0.0000
    39 H12        -37.0682    46.5940    -0.1227 H            1 ADP1476   0.0000
@<TRIPOS>BOND
     1    1    2      ar
     2    1    3      ar
     3    1    4      ar
     4    1    8       1
     5    5    6      ar
     6    5    7      ar
     7    5    8       1
     8    5    9       1
     9    9   10       1
    10   10   11       1
    11   11   12       1
    12   11   13       1
    13   12   17       1
    14   13   14       1
    15   13   15       1
    16   15   16       1
    17   15   17       1
    18   17   18       1
    19   18   19       1
    20   18   27       1
    21   19   20       2
    22   20   21       1
    23   21   22      ar
    24   21   27      ar
    25   22   23       1
    26   22   24      ar
    27   24   25      ar
    28   25   26      ar
    29   26   27      ar
    30   25   39       1
    31   23   38       1
    32   23   37       1
    33   10   28       1
    34   10   29       1
    35   11   30       1
    36   13   31       1
    37   14   32       1
    38   15   33       1
    39   16   34       1
    40   17   35       1
    41   19   36       1
@<TRIPOS>SUBSTRUCTURE
     1 ADP1476     1 GROUP             4 D     ADP     0 **** ADP D1476
