@<TRIPOS>MOLECULE
3e39_FMN_2_ligand
   50    52     1     0     0
SMALL
NO_CHARGES


@<TRIPOS>ATOM
     1 N1          22.9710    82.5100   -15.6130 N.2          1 FMN200   0.0000
     2 C2          22.3410    83.2020   -16.6200 C.2          1 FMN200   0.0000
     3 O2          23.0290    83.7340   -17.4570 O.2          1 FMN200   0.0000
     4 N3          20.9690    83.2730   -16.7190 N.pl3        1 FMN200   0.0000
     5 C4          20.1510    82.6510   -15.8160 C.2          1 FMN200   0.0000
     6 O4          18.9660    82.4780   -16.1060 O.2          1 FMN200   0.0000
     7 C4A         20.7510    81.9570   -14.7830 C.2          1 FMN200   0.0000
     8 N5          19.9720    81.3230   -13.8590 N.2          1 FMN200   0.0000
     9 C5A         20.5740    80.5990   -12.8520 C.ar         1 FMN200   0.0000
    10 C6          19.7550    79.9900   -11.9230 C.ar         1 FMN200   0.0000
    11 C7          20.3190    79.2360   -10.8940 C.ar         1 FMN200   0.0000
    12 C7M         19.4470    78.6080    -9.8400 C.3          1 FMN200   0.0000
    13 C8          21.7000    79.1050   -10.7740 C.ar         1 FMN200   0.0000
    14 C8M         22.3100    78.1020    -9.8080 C.3          1 FMN200   0.0000
    15 C9          22.5130    79.7450   -11.6870 C.ar         1 FMN200   0.0000
    16 C9A         21.9640    80.5130   -12.7350 C.ar         1 FMN200   0.0000
    17 N10         22.7630    81.1590   -13.6970 N.pl3        1 FMN200   0.0000
    18 C10         22.1620    81.8670   -14.6930 C.2          1 FMN200   0.0000
    19 C1'         24.2620    81.0700   -13.6870 C.3          1 FMN200   0.0000
    20 C2'         24.8360    81.9200   -12.5480 C.3          1 FMN200   0.0000
    21 O2'         24.7420    83.2900   -12.8730 O.3          1 FMN200   0.0000
    22 C3'         26.2590    81.4690   -12.2430 C.3          1 FMN200   0.0000
    23 O3'         26.2990    80.1620   -11.7660 O.3          1 FMN200   0.0000
    24 C4'         26.9620    82.3880   -11.2320 C.3          1 FMN200   0.0000
    25 O4'         27.0700    83.6990   -11.7700 O.3          1 FMN200   0.0000
    26 C5'         28.3680    81.9060   -10.9290 C.3          1 FMN200   0.0000
    27 O5'         29.1290    81.7630   -12.1240 O.3          1 FMN200   0.0000
    28 P           29.8100    80.3710   -12.4810 P.3          1 FMN200   0.0000
    29 O1P         30.7770    80.6120   -13.6150 O.co2        1 FMN200   0.0000
    30 O2P         28.6810    79.4220   -12.8440 O.co2        1 FMN200  -1.0000
    31 O3P         30.5510    79.8440   -11.2870 O.co2        1 FMN200  -1.0000
    32 H1          20.5606    83.7922   -17.4698 H            1 FMN200   0.0000
    33 H2          18.7620    80.0888   -11.9873 H            1 FMN200   0.0000
    34 H7M1        20.0185    78.1092    -9.1884 H            1 FMN200   0.0000
    35 H7M2        18.9387    79.3223    -9.3590 H            1 FMN200   0.0000
    36 H7M3        18.8046    77.9753   -10.2724 H            1 FMN200   0.0000
    37 H8M1        23.3073    78.1521    -9.8611 H            1 FMN200   0.0000
    38 H8M2        22.0147    78.3143    -8.8765 H            1 FMN200   0.0000
    39 H8M3        22.0092    77.1798   -10.0510 H            1 FMN200   0.0000
    40 H9          23.5062    79.6631   -11.6044 H            1 FMN200   0.0000
    41 H1'1        24.6184    81.4035   -14.5598 H            1 FMN200   0.0000
    42 H1'2        24.5353    80.1168   -13.5577 H            1 FMN200   0.0000
    43 H2'         24.2802    81.7581   -11.7326 H            1 FMN200   0.0000
    44 H13         25.4911    83.7883   -12.4364 H            1 FMN200   0.0000
    45 H3'         26.7789    81.4991   -13.0967 H            1 FMN200   0.0000
    46 H15         27.1651    79.7373   -12.0295 H            1 FMN200   0.0000
    47 H4'         26.4311    82.4186   -10.3851 H            1 FMN200   0.0000
    48 H17         28.0344    83.9565   -11.8294 H            1 FMN200   0.0000
    49 H5'1        28.3173    81.0210   -10.4661 H            1 FMN200   0.0000
    50 H5'2        28.8191    82.5692   -10.3318 H            1 FMN200   0.0000
@<TRIPOS>BOND
     1    1    2       1
     2    1   18       2
     3    2    3       2
     4    2    4       1
     5    4    5       1
     6    5    6       2
     7    5    7       1
     8    7    8       2
     9    7   18       1
    10    8    9       1
    11    9   10      ar
    12    9   16      ar
    13   10   11      ar
    14   11   12       1
    15   11   13      ar
    16   13   14       1
    17   13   15      ar
    18   15   16      ar
    19   16   17       1
    20   17   18       1
    21   17   19       1
    22   19   20       1
    23   20   21       1
    24   20   22       1
    25   22   23       1
    26   22   24       1
    27   24   25       1
    28   24   26       1
    29   26   27       1
    30   27   28       1
    31   28   29      ar
    32   28   30      ar
    33   28   31      ar
    34    4   32       1
    35   10   33       1
    36   12   34       1
    37   12   35       1
    38   12   36       1
    39   14   37       1
    40   14   38       1
    41   14   39       1
    42   15   40       1
    43   19   41       1
    44   19   42       1
    45   20   43       1
    46   21   44       1
    47   22   45       1
    48   23   46       1
    49   24   47       1
    50   25   48       1
    51   26   49       1
    52   26   50       1
@<TRIPOS>SUBSTRUCTURE
     1 FMN200      1 GROUP             4 B     FMN     0 **** FMN B 200
