@<TRIPOS>MOLECULE
5dul_NDP_1_ligand
   73    77     1     0     0
SMALL
NO_CHARGES


@<TRIPOS>ATOM
     1 PA           3.8790    22.2650   -19.8040 P.3          1 NDP701   0.0000
     2 O1A          3.7730    21.3890   -21.0410 O.co2        1 NDP701   0.0000
     3 O2A          3.0080    22.2430   -18.5720 O.co2        1 NDP701  -1.0000
     4 O5B          3.6190    23.7610   -20.2730 O.3          1 NDP701   0.0000
     5 C5B          4.5910    24.5300   -20.9580 C.3          1 NDP701   0.0000
     6 C4B          4.2020    25.9870   -20.8040 C.3          1 NDP701   0.0000
     7 O4B          4.6970    26.6870   -21.9280 O.3          1 NDP701   0.0000
     8 C3B          2.7000    26.2030   -20.7810 C.3          1 NDP701   0.0000
     9 O3B          2.4490    27.0310   -19.6450 O.3          1 NDP701   0.0000
    10 C2B          2.3780    26.8300   -22.1250 C.3          1 NDP701   0.0000
    11 O2B          1.3850    27.8450   -22.1120 O.3          1 NDP701   0.0000
    12 C1B          3.6730    27.5180   -22.4340 C.3          1 NDP701   0.0000
    13 N9A          3.9580    27.7370   -23.8480 N.pl3        1 NDP701   0.0000
    14 C8A          4.0810    26.8200   -24.8300 C.2          1 NDP701   0.0000
    15 N7A          4.4110    27.4420   -25.9950 N.2          1 NDP701   0.0000
    16 C5A          4.5050    28.7730   -25.7400 C.ar         1 NDP701   0.0000
    17 C6A          4.8110    30.0090   -26.4890 C.ar         1 NDP701   0.0000
    18 N6A          5.0890    29.9760   -27.8140 N.pl3        1 NDP701   0.0000
    19 N1A          4.8110    31.1840   -25.8060 N.ar         1 NDP701   0.0000
    20 C2A          4.5370    31.2730   -24.4910 C.ar         1 NDP701   0.0000
    21 N3A          4.2450    30.1950   -23.7510 N.ar         1 NDP701   0.0000
    22 C4A          4.2160    28.9570   -24.3120 C.ar         1 NDP701   0.0000
    23 O3           5.4270    22.1360   -19.4420 O.3          1 NDP701   0.0000
    24 PN           6.0180    22.1910   -17.9700 P.3          1 NDP701   0.0000
    25 O1N          5.6630    20.8530   -17.3850 O.co2        1 NDP701   0.0000
    26 O2N          5.6540    23.5580   -17.3840 O.co2        1 NDP701  -1.0000
    27 O5D          7.5500    22.2130   -18.4080 O.3          1 NDP701   0.0000
    28 C5D          8.1580    23.4190   -18.8850 C.3          1 NDP701   0.0000
    29 C4D          9.5790    23.1150   -19.3940 C.3          1 NDP701   0.0000
    30 O4D         10.4350    22.6540   -18.3310 O.3          1 NDP701   0.0000
    31 C3D          9.6280    22.0080   -20.4310 C.3          1 NDP701   0.0000
    32 O3D         10.7440    22.1940   -21.3180 O.3          1 NDP701   0.0000
    33 C2D          9.8770    20.7610   -19.6320 C.3          1 NDP701   0.0000
    34 O2D         10.4470    19.6960   -20.3870 O.3          1 NDP701   0.0000
    35 C1D         10.8390    21.3060   -18.5830 C.3          1 NDP701   0.0000
    36 N1N         10.9000    20.4740   -17.3710 N.ar         1 NDP701   1.0000
    37 C2N          9.8040    19.8950   -16.8620 C.ar         1 NDP701   0.0000
    38 C3N          9.8620    19.0870   -15.7310 C.ar         1 NDP701   0.0000
    39 C7N          8.6190    18.4960   -15.1740 C.2          1 NDP701   0.0000
    40 O7N          8.7670    17.5530   -14.4320 O.2          1 NDP701   0.0000
    41 N7N          7.4000    18.9960   -15.4350 N.am         1 NDP701   0.0000
    42 C4N         11.1610    18.8200   -15.0110 C.ar         1 NDP701   0.0000
    43 C5N         12.2820    19.4940   -15.6560 C.ar         1 NDP701   0.0000
    44 C6N         12.1070    20.2830   -16.7920 C.ar         1 NDP701   0.0000
    45 P2B         -0.1340    27.5430   -22.5090 P.3          1 NDP701   0.0000
    46 O1X         -0.2860    26.1780   -21.8660 O.co2        1 NDP701   0.0000
    47 O2X         -0.8310    28.7120   -21.8740 O.co2        1 NDP701  -1.0000
    48 O3X         -0.2520    27.5450   -24.0160 O.co2        1 NDP701  -1.0000
    49 H5B1         4.6054    24.2800   -21.9261 H            1 NDP701   0.0000
    50 H5B2         5.4947    24.3730   -20.5597 H            1 NDP701   0.0000
    51 H4B          4.6089    26.3583   -19.9694 H            1 NDP701   0.0000
    52 H3B          2.2254    25.3282   -20.6840 H            1 NDP701   0.0000
    53 H5           1.6426    27.5969   -19.8167 H            1 NDP701   0.0000
    54 H2B          2.1694    26.1304   -22.8084 H            1 NDP701   0.0000
    55 H1B          3.6986    28.3959   -21.9559 H            1 NDP701   0.0000
    56 H8A          3.9499    25.8349   -24.7191 H            1 NDP701   0.0000
    57 H6A1         5.2937    30.8238   -28.3032 H            1 NDP701   0.0000
    58 H6A2         5.0896    29.1038   -28.3032 H            1 NDP701   0.0000
    59 H2A          4.5519    32.1718   -24.0528 H            1 NDP701   0.0000
    60 H5D1         8.2066    24.0844   -18.1401 H            1 NDP701   0.0000
    61 H5D2         7.6101    23.7948   -19.6324 H            1 NDP701   0.0000
    62 H4D          9.9687    23.9475   -19.7879 H            1 NDP701   0.0000
    63 H3D          8.7681    21.9480   -20.9380 H            1 NDP701   0.0000
    64 H16         10.6545    23.0729   -21.7866 H            1 NDP701   0.0000
    65 H2D          9.0297    20.4577   -19.1961 H            1 NDP701   0.0000
    66 H18         10.5842    18.9029   -19.7936 H            1 NDP701   0.0000
    67 H1D         11.7536    21.3292   -18.9867 H            1 NDP701   0.0000
    68 H2N          8.9214    20.0477   -17.3067 H            1 NDP701   0.0000
    69 H7N1         6.5882    18.5668   -15.0389 H            1 NDP701   0.0000
    70 H7N2         7.3042    19.7974   -16.0254 H            1 NDP701   0.0000
    71 H4N         11.2431    18.2512   -14.1927 H            1 NDP701   0.0000
    72 H5N         13.1998    19.3875   -15.2736 H            1 NDP701   0.0000
    73 H6N         12.9075    20.7262   -17.1955 H            1 NDP701   0.0000
@<TRIPOS>BOND
     1    1    2      ar
     2    1    3      ar
     3    1    4       1
     4    1   23       1
     5    4    5       1
     6    5    6       1
     7    6    7       1
     8    6    8       1
     9    7   12       1
    10    8    9       1
    11    8   10       1
    12   10   11       1
    13   10   12       1
    14   11   45       1
    15   12   13       1
    16   13   14       1
    17   13   22       1
    18   14   15       2
    19   15   16       1
    20   16   17      ar
    21   16   22      ar
    22   17   18       1
    23   17   19      ar
    24   19   20      ar
    25   20   21      ar
    26   21   22      ar
    27   23   24       1
    28   24   25      ar
    29   24   26      ar
    30   24   27       1
    31   27   28       1
    32   28   29       1
    33   29   30       1
    34   29   31       1
    35   30   35       1
    36   31   32       1
    37   31   33       1
    38   33   34       1
    39   33   35       1
    40   35   36       1
    41   36   37      ar
    42   36   44      ar
    43   37   38      ar
    44   38   39       1
    45   38   42      ar
    46   39   40       2
    47   39   41      am
    48   42   43      ar
    49   43   44      ar
    50   45   46      ar
    51   45   47      ar
    52   45   48      ar
    53   43   72       1
    54    5   49       1
    55    5   50       1
    56    6   51       1
    57    8   52       1
    58    9   53       1
    59   10   54       1
    60   12   55       1
    61   14   56       1
    62   18   57       1
    63   18   58       1
    64   20   59       1
    65   44   73       1
    66   28   60       1
    67   28   61       1
    68   29   62       1
    69   31   63       1
    70   32   64       1
    71   33   65       1
    72   34   66       1
    73   35   67       1
    74   37   68       1
    75   41   69       1
    76   41   70       1
    77   42   71       1
@<TRIPOS>SUBSTRUCTURE
     1 NDP701      1 GROUP             4 A     NDP     0 **** NDP A 701
