@<TRIPOS>MOLECULE
4zhq_ACP_5_ligand
   45    47     1     0     0
SMALL
NO_CHARGES


@<TRIPOS>ATOM
     1 PG          -8.5100    28.8710    94.6610 P.3          1 ACP401   0.0000
     2 O1G         -9.3270    28.2720    93.3910 O.co2        1 ACP401   0.0000
     3 O2G         -7.2800    29.5670    94.1940 O.co2        1 ACP401  -1.0000
     4 O3G         -8.0500    27.6780    95.6550 O.co2        1 ACP401  -1.0000
     5 PB         -11.2770    29.3380    95.8740 P.3          1 ACP401   0.0000
     6 O1B        -11.5850    28.2280    94.9260 O.co2        1 ACP401   0.0000
     7 O2B        -12.3360    30.4930    95.4720 O.co2        1 ACP401  -1.0000
     8 C3B         -9.5960    30.0030    95.5930 C.3          1 ACP401   0.0000
     9 PA         -10.5690    28.0040    98.4680 P.3          1 ACP401   0.0000
    10 O1A         -9.1840    27.7980    97.8880 O.co2        1 ACP401   0.0000
    11 O2A        -11.3170    26.7790    98.9610 O.co2        1 ACP401  -1.0000
    12 O3A        -11.5010    28.9010    97.4470 O.3          1 ACP401   0.0000
    13 O5'        -10.4330    28.9240    99.8020 O.3          1 ACP401   0.0000
    14 C5'         -9.6430    30.1230    99.8720 C.3          1 ACP401   0.0000
    15 C4'         -8.8570    30.2700   101.1890 C.3          1 ACP401   0.0000
    16 O4'         -9.6330    29.8730   102.3270 O.3          1 ACP401   0.0000
    17 C3'         -7.5740    29.4410   101.2630 C.3          1 ACP401   0.0000
    18 O3'         -6.4210    30.1150   100.7550 O.3          1 ACP401   0.0000
    19 C2'         -7.4100    29.1330   102.7360 C.3          1 ACP401   0.0000
    20 O2'         -6.5490    30.0540   103.3890 O.3          1 ACP401   0.0000
    21 C1'         -8.7970    29.2640   103.3250 C.3          1 ACP401   0.0000
    22 N9          -9.2590    27.9040   103.6810 N.pl3        1 ACP401   0.0000
    23 C8         -10.0410    27.0960   102.9230 C.2          1 ACP401   0.0000
    24 N7         -10.2660    25.9050   103.5450 N.2          1 ACP401   0.0000
    25 C5          -9.6050    25.9460   104.7200 C.ar         1 ACP401   0.0000
    26 C6          -9.4200    25.0240   105.8640 C.ar         1 ACP401   0.0000
    27 N6          -9.9990    23.8120   105.8700 N.pl3        1 ACP401   0.0000
    28 N1          -8.6610    25.4420   106.8920 N.ar         1 ACP401   0.0000
    29 C2          -8.0700    26.6620   106.8910 C.ar         1 ACP401   0.0000
    30 N3          -8.1960    27.5620   105.8910 N.ar         1 ACP401   0.0000
    31 C4          -8.9400    27.2650   104.8020 C.ar         1 ACP401   0.0000
    32 H3B1        -9.6757    30.8581    95.0807 H            1 ACP401   0.0000
    33 H3B2        -9.1752    30.1848    96.4817 H            1 ACP401   0.0000
    34 H5'1       -10.2537    30.9094    99.7792 H            1 ACP401   0.0000
    35 H5'2        -8.9908    30.1162    99.1140 H            1 ACP401   0.0000
    36 H4'         -8.6122    31.2332   101.2997 H            1 ACP401   0.0000
    37 H3'         -7.7044    28.5865   100.7602 H            1 ACP401   0.0000
    38 H7          -5.7818    29.4444   100.3786 H            1 ACP401   0.0000
    39 H2'         -7.0713    28.1999   102.8570 H            1 ACP401   0.0000
    40 H9          -6.4721    29.8105   104.3559 H            1 ACP401   0.0000
    41 H1'         -8.7675    29.8391   104.1425 H            1 ACP401   0.0000
    42 H11        -10.4050    27.3422   102.0247 H            1 ACP401   0.0000
    43 H12         -9.8665    23.1984   106.6484 H            1 ACP401   0.0000
    44 H13        -10.5626    23.5233   105.0960 H            1 ACP401   0.0000
    45 H14         -7.5063    26.9112   107.6785 H            1 ACP401   0.0000
@<TRIPOS>BOND
     1    1    2      ar
     2    1    3      ar
     3    1    4      ar
     4    1    8       1
     5    5    6      ar
     6    5    7      ar
     7    5    8       1
     8    5   12       1
     9    9   10      ar
    10    9   11      ar
    11    9   12       1
    12    9   13       1
    13   13   14       1
    14   14   15       1
    15   15   16       1
    16   15   17       1
    17   16   21       1
    18   17   18       1
    19   17   19       1
    20   19   20       1
    21   19   21       1
    22   21   22       1
    23   22   23       1
    24   22   31       1
    25   23   24       2
    26   24   25       1
    27   25   26      ar
    28   25   31      ar
    29   26   27       1
    30   26   28      ar
    31   28   29      ar
    32   29   30      ar
    33   30   31      ar
    34   29   45       1
    35   27   44       1
    36   27   43       1
    37    8   32       1
    38    8   33       1
    39   23   42       1
    40   14   34       1
    41   14   35       1
    42   15   36       1
    43   17   37       1
    44   18   38       1
    45   19   39       1
    46   20   40       1
    47   21   41       1
@<TRIPOS>SUBSTRUCTURE
     1 ACP401      1 GROUP             4 F     ACP     0 **** ACP F 401
