@<TRIPOS>MOLECULE
1dr3_TAP_1_ligand
   73    77     1     0     0
SMALL
NO_CHARGES


@<TRIPOS>ATOM
     1 PA          21.9450     5.2380    17.9550 P.3          1 TAP191   0.0000
     2 O1A         21.1580     3.9950    18.0420 O.co2        1 TAP191   0.0000
     3 O2A         21.2750     6.2840    17.0840 O.co2        1 TAP191  -1.0000
     4 O5B         22.3040     5.9500    19.3980 O.3          1 TAP191   0.0000
     5 C5B         22.7300     5.1020    20.5000 C.3          1 TAP191   0.0000
     6 C4B         22.2530     5.5750    21.8340 C.3          1 TAP191   0.0000
     7 O4B         21.0940     5.6880    21.8880 O.3          1 TAP191   0.0000
     8 C3B         22.7320     4.6020    22.9680 C.3          1 TAP191   0.0000
     9 O3B         24.0740     5.1650    23.3920 O.3          1 TAP191   0.0000
    10 C2B         21.6470     5.0340    24.0040 C.3          1 TAP191   0.0000
    11 O2B         21.8890     6.3570    24.4430 O.3          1 TAP191   0.0000
    12 C1B         20.4670     5.1660    23.0880 C.3          1 TAP191   0.0000
    13 N9A         19.8230     3.8740    22.8070 N.pl3        1 TAP191   0.0000
    14 C8A         20.0580     3.1490    21.6950 C.2          1 TAP191   0.0000
    15 N7A         19.3050     2.0640    21.6860 N.2          1 TAP191   0.0000
    16 C5A         18.6320     2.1650    22.9690 C.ar         1 TAP191   0.0000
    17 C6A         17.5520     1.3270    23.7120 C.ar         1 TAP191   0.0000
    18 N6A         17.0540     0.1660    23.2230 N.pl3        1 TAP191   0.0000
    19 N1A         17.0860     1.7700    24.8890 N.ar         1 TAP191   0.0000
    20 C2A         17.6170     2.9410    25.2920 C.ar         1 TAP191   0.0000
    21 N3A         18.4980     3.7720    24.7420 N.ar         1 TAP191   0.0000
    22 C4A         18.9830     3.2920    23.5740 C.ar         1 TAP191   0.0000
    23 O3          23.3700     5.0590    17.3600 O.3          1 TAP191   0.0000
    24 PN          24.1250     4.2630    16.2060 P.3          1 TAP191   0.0000
    25 O1N         23.7510     2.8740    16.0380 O.co2        1 TAP191   0.0000
    26 O2N         25.5310     4.4390    16.3330 O.co2        1 TAP191  -1.0000
    27 O5D         23.5450     5.0280    14.8810 O.3          1 TAP191   0.0000
    28 C5D         23.8200     6.4120    14.5470 C.3          1 TAP191   0.0000
    29 C4D         24.8190     6.2730    13.3630 C.3          1 TAP191   0.0000
    30 O4D         24.0930     5.4290    12.4220 O.3          1 TAP191   0.0000
    31 C3D         25.0700     7.6320    12.5480 C.3          1 TAP191   0.0000
    32 O3D         26.2420     7.4240    11.6920 O.3          1 TAP191   0.0000
    33 C2D         23.7730     7.6840    11.7190 C.3          1 TAP191   0.0000
    34 O2D         24.0640     8.4490    10.5230 O.3          1 TAP191   0.0000
    35 C1D         23.5440     6.2540    11.3630 C.3          1 TAP191   0.0000
    36 N1N         22.1420     5.9600    10.8630 N.ar         1 TAP191   1.0000
    37 C2N         21.8390     5.5280     9.5640 C.ar         1 TAP191   0.0000
    38 C3N         20.5890     5.2400     9.1870 C.ar         1 TAP191   0.0000
    39 C7N         20.3610     4.7620     7.8240 C.2          1 TAP191   0.0000
    40 S7N         18.8590     4.8480     7.2550 S.2          1 TAP191   0.0000
    41 N7N         21.2760     4.2130     7.0460 N.pl3        1 TAP191   0.0000
    42 C4N         19.3690     5.3060    10.1510 C.ar         1 TAP191   0.0000
    43 C5N         19.8570     5.7180    11.5280 C.ar         1 TAP191   0.0000
    44 C6N         21.1150     5.9900    11.8040 C.ar         1 TAP191   0.0000
    45 P2B         22.6210     6.6120    25.8400 P.3          1 TAP191   0.0000
    46 O1X         22.3590     8.0490    26.2280 O.co2        1 TAP191   0.0000
    47 O2X         21.8730     5.6440    26.7110 O.co2        1 TAP191  -1.0000
    48 O3X         24.0570     6.2460    25.6530 O.co2        1 TAP191  -1.0000
    49 H5B1        23.7296     5.0767    20.5119 H            1 TAP191   0.0000
    50 H5B2        22.3750     4.1800    20.3455 H            1 TAP191   0.0000
    51 H4B         22.6587     6.4726    22.0061 H            1 TAP191   0.0000
    52 H3B         22.7317     3.6313    22.7275 H            1 TAP191   0.0000
    53 H5          24.0414     5.4104    24.3609 H            1 TAP191   0.0000
    54 H2B         21.5121     4.3785    24.7471 H            1 TAP191   0.0000
    55 H1B         19.8050     5.8196    23.4549 H            1 TAP191   0.0000
    56 H8A         20.7100     3.3975    20.9786 H            1 TAP191   0.0000
    57 H6A1        16.3602    -0.3369    23.7385 H            1 TAP191   0.0000
    58 H6A2        17.3802    -0.1882    22.3466 H            1 TAP191   0.0000
    59 H2A         17.2815     3.2465    26.1831 H            1 TAP191   0.0000
    60 H5D1        24.2361     6.8950    15.3175 H            1 TAP191   0.0000
    61 H5D2        22.9876     6.8890    14.2648 H            1 TAP191   0.0000
    62 H4D         25.6783     5.8508    13.6517 H            1 TAP191   0.0000
    63 H3D         25.1715     8.4248    13.1489 H            1 TAP191   0.0000
    64 H16         27.0355     7.2063    12.2603 H            1 TAP191   0.0000
    65 H2D         23.0098     8.0703    12.2371 H            1 TAP191   0.0000
    66 H18         23.2352     8.9177    10.2172 H            1 TAP191   0.0000
    67 H1D         24.1371     6.0879    10.5752 H            1 TAP191   0.0000
    68 H2N         22.5801     5.4324     8.8995 H            1 TAP191   0.0000
    69 H7N1        21.0332     3.9129     6.1235 H            1 TAP191   0.0000
    70 H7N2        22.2117     4.0974     7.3793 H            1 TAP191   0.0000
    71 H4N         18.4201     5.1094     9.9040 H            1 TAP191   0.0000
    72 H5N         19.1859     5.7866    12.2661 H            1 TAP191   0.0000
    73 H6N         21.3476     6.2328    12.7458 H            1 TAP191   0.0000
@<TRIPOS>BOND
     1    1    2      ar
     2    1    3      ar
     3    1    4       1
     4    1   23       1
     5    4    5       1
     6    5    6       1
     7    6    7       1
     8    6    8       1
     9    7   12       1
    10    8    9       1
    11    8   10       1
    12   10   11       1
    13   10   12       1
    14   11   45       1
    15   12   13       1
    16   13   14       1
    17   13   22       1
    18   14   15       2
    19   15   16       1
    20   16   17      ar
    21   16   22      ar
    22   17   18       1
    23   17   19      ar
    24   19   20      ar
    25   20   21      ar
    26   21   22      ar
    27   23   24       1
    28   24   25      ar
    29   24   26      ar
    30   24   27       1
    31   27   28       1
    32   28   29       1
    33   29   30       1
    34   29   31       1
    35   30   35       1
    36   31   32       1
    37   31   33       1
    38   33   34       1
    39   33   35       1
    40   35   36       1
    41   36   37      ar
    42   36   44      ar
    43   37   38      ar
    44   38   39       1
    45   38   42      ar
    46   39   40       2
    47   39   41       1
    48   42   43      ar
    49   43   44      ar
    50   45   46      ar
    51   45   47      ar
    52   45   48      ar
    53   43   72       1
    54    5   49       1
    55    5   50       1
    56    6   51       1
    57    8   52       1
    58    9   53       1
    59   10   54       1
    60   12   55       1
    61   14   56       1
    62   18   57       1
    63   18   58       1
    64   20   59       1
    65   44   73       1
    66   28   60       1
    67   28   61       1
    68   29   62       1
    69   31   63       1
    70   32   64       1
    71   33   65       1
    72   34   66       1
    73   35   67       1
    74   37   68       1
    75   41   69       1
    76   41   70       1
    77   42   71       1
@<TRIPOS>SUBSTRUCTURE
     1 TAP191      1 GROUP             4 A     TAP     0 **** TAP A 191
