@<TRIPOS>MOLECULE
2jdc_CAO_1_ligand
   81    83     1     0     0
SMALL
NO_CHARGES


@<TRIPOS>ATOM
     1 N1A          9.9220     6.5590     8.9200 N.ar         1 CAO1147   0.0000
     2 C2A          8.9180     5.7760     8.4700 C.ar         1 CAO1147   0.0000
     3 N3A          8.9950     5.0370     7.3450 N.ar         1 CAO1147   0.0000
     4 C4A         10.1190     5.0810     6.5800 C.ar         1 CAO1147   0.0000
     5 C5A         11.2370     5.9270     6.9860 C.ar         1 CAO1147   0.0000
     6 C6A         11.0910     6.6790     8.2390 C.ar         1 CAO1147   0.0000
     7 N6A         12.1110     7.4630     8.6470 N.pl3        1 CAO1147   0.0000
     8 N7A         12.2150     5.7800     6.0730 N.2          1 CAO1147   0.0000
     9 C8A         11.7570     4.9030     5.1470 C.2          1 CAO1147   0.0000
    10 N9A         10.4970     4.5050     5.4520 N.pl3        1 CAO1147   0.0000
    11 C1B          9.6440     3.5510     4.7210 C.3          1 CAO1147   0.0000
    12 C2B          9.6040     3.7210     3.2120 C.3          1 CAO1147   0.0000
    13 O2B          8.5640     4.6480     2.8210 O.3          1 CAO1147   0.0000
    14 C3B          9.3210     2.2980     2.7760 C.3          1 CAO1147   0.0000
    15 O3B          7.9190     2.0120     2.8850 O.3          1 CAO1147   0.0000
    16 P3B          7.0360     1.4820     1.6340 P.3          1 CAO1147   0.0000
    17 O7A          7.5870     0.1380     1.2190 O.co2        1 CAO1147   0.0000
    18 O8A          5.6490     1.3900     2.2410 O.co2        1 CAO1147  -1.0000
    19 O9A          7.1850     2.5410     0.5620 O.co2        1 CAO1147  -1.0000
    20 C4B         10.0670     1.4390     3.7900 C.3          1 CAO1147   0.0000
    21 O4B         10.1150     2.2320     4.9830 O.3          1 CAO1147   0.0000
    22 C5B         11.4700     1.0610     3.3240 C.3          1 CAO1147   0.0000
    23 O5B         12.2510     2.2130     3.0010 O.3          1 CAO1147   0.0000
    24 P1A         13.6360     2.0050     2.1930 P.3          1 CAO1147   0.0000
    25 O1A         13.5400     2.6980     0.8500 O.co2        1 CAO1147   0.0000
    26 O2A         14.0360     0.5580     2.2150 O.co2        1 CAO1147  -1.0000
    27 O3A         14.5950     2.8370     3.1790 O.3          1 CAO1147   0.0000
    28 P2A         15.6420     3.9930     2.8100 P.3          1 CAO1147   0.0000
    29 O4A         14.8960     5.2300     2.3890 O.co2        1 CAO1147   0.0000
    30 O5A         16.7100     3.4870     1.8840 O.co2        1 CAO1147  -1.0000
    31 O6A         16.3170     4.2150     4.2410 O.3          1 CAO1147   0.0000
    32 CBP         16.4360     5.2410     6.4400 C.3          1 CAO1147   0.0000
    33 CCP         15.5880     4.4500     5.4490 C.3          1 CAO1147   0.0000
    34 CDP         17.7590     4.4920     6.6440 C.3          1 CAO1147   0.0000
    35 CEP         15.6680     5.3130     7.7610 C.3          1 CAO1147   0.0000
    36 CAP         16.6780     6.6680     5.8900 C.3          1 CAO1147   0.0000
    37 OAP         15.4400     7.4040     5.8590 O.3          1 CAO1147   0.0000
    38 C9P         17.6880     7.4460     6.6960 C.2          1 CAO1147   0.0000
    39 O9P         18.8870     7.3030     6.5220 O.2          1 CAO1147   0.0000
    40 N8P         17.2350     8.3300     7.5950 N.am         1 CAO1147   0.0000
    41 C7P         18.1010     9.1830     8.3710 C.3          1 CAO1147   0.0000
    42 C6P         19.0880     8.4420     9.2680 C.3          1 CAO1147   0.0000
    43 C5P         18.3720     7.4520    10.1670 C.2          1 CAO1147   0.0000
    44 O5P         17.4400     7.7940    10.8860 O.2          1 CAO1147   0.0000
    45 N4P         18.8280     6.2050    10.1530 N.am         1 CAO1147   0.0000
    46 C3P         18.2880     5.1520    10.9920 C.3          1 CAO1147   0.0000
    47 C2P         19.2100     4.9430    12.1870 C.3          1 CAO1147   0.0000
    48 S1P         18.5550     3.8690    13.4200 S.3          1 CAO1147   0.0000
    49 O1P         19.8130     4.1350    14.6420 O.3          1 CAO1147   0.0000
    50 H2A          8.0709     5.7425     9.0003 H            1 CAO1147   0.0000
    51 H6A1        12.9503     7.5136     8.1056 H            1 CAO1147   0.0000
    52 H6A2        12.0275     7.9933     9.4907 H            1 CAO1147   0.0000
    53 H8A         12.2756     4.5927     4.3503 H            1 CAO1147   0.0000
    54 H1B          8.7109     3.6285     5.0722 H            1 CAO1147   0.0000
    55 H2B         10.4929     4.0241     2.8684 H            1 CAO1147   0.0000
    56 H7           8.9717     5.4203     2.3338 H            1 CAO1147   0.0000
    57 H3B          9.6528     2.1316     1.8475 H            1 CAO1147   0.0000
    58 H4B          9.5422     0.6065     3.9675 H            1 CAO1147   0.0000
    59 H5B1        11.3962     0.4821     2.5120 H            1 CAO1147   0.0000
    60 H5B2        11.9279     0.5541     4.0543 H            1 CAO1147   0.0000
    61 HCP1        15.3369     3.5726     5.8578 H            1 CAO1147   0.0000
    62 HCP2        14.7595     4.9685     5.2377 H            1 CAO1147   0.0000
    63 HDP1        18.3306     4.9955     7.2919 H            1 CAO1147   0.0000
    64 HDP2        17.5725     3.5780     7.0043 H            1 CAO1147   0.0000
    65 HDP3        18.2364     4.4142     5.7688 H            1 CAO1147   0.0000
    66 HEP1        16.2036     5.8280     8.4303 H            1 CAO1147   0.0000
    67 HEP2        14.7913     5.7706     7.6124 H            1 CAO1147   0.0000
    68 HEP3        15.5071     4.3875     8.1039 H            1 CAO1147   0.0000
    69 HAP         17.0188     6.5889     4.9532 H            1 CAO1147   0.0000
    70 H21         14.9912     7.2644     4.9763 H            1 CAO1147   0.0000
    71 H8P         16.2474     8.4019     7.7349 H            1 CAO1147   0.0000
    72 H7P1        17.5289     9.7636     8.9502 H            1 CAO1147   0.0000
    73 H7P2        18.6235     9.7548     7.7385 H            1 CAO1147   0.0000
    74 H6P1        19.5751     9.1056     9.8357 H            1 CAO1147   0.0000
    75 H6P2        19.7429     7.9488     8.6954 H            1 CAO1147   0.0000
    76 H4P         19.5805     5.9808     9.5338 H            1 CAO1147   0.0000
    77 H3P1        18.2248     4.3040    10.4657 H            1 CAO1147   0.0000
    78 H3P2        17.3778     5.4136    11.3132 H            1 CAO1147   0.0000
    79 H2P1        19.3865     5.8331    12.6072 H            1 CAO1147   0.0000
    80 H2P2        20.0699     4.5542    11.8562 H            1 CAO1147   0.0000
    81 H1P         19.4196     4.0251    15.5548 H            1 CAO1147   0.0000
@<TRIPOS>BOND
     1    1    2      ar
     2    1    6      ar
     3    2    3      ar
     4    3    4      ar
     5    4    5      ar
     6    4   10       1
     7    5    6      ar
     8    5    8       1
     9    6    7       1
    10    8    9       2
    11    9   10       1
    12   10   11       1
    13   11   12       1
    14   11   21       1
    15   12   13       1
    16   12   14       1
    17   14   15       1
    18   14   20       1
    19   15   16       1
    20   16   17      ar
    21   16   18      ar
    22   16   19      ar
    23   20   21       1
    24   20   22       1
    25   22   23       1
    26   23   24       1
    27   24   25      ar
    28   24   26      ar
    29   24   27       1
    30   27   28       1
    31   28   29      ar
    32   28   30      ar
    33   28   31       1
    34   31   33       1
    35   32   33       1
    36   32   34       1
    37   32   35       1
    38   32   36       1
    39   36   37       1
    40   36   38       1
    41   38   39       2
    42   38   40      am
    43   40   41       1
    44   41   42       1
    45   42   43       1
    46   43   44       2
    47   43   45      am
    48   45   46       1
    49   46   47       1
    50   47   48       1
    51   48   49       1
    52    2   50       1
    53    7   51       1
    54    7   52       1
    55    9   53       1
    56   11   54       1
    57   12   55       1
    58   13   56       1
    59   14   57       1
    60   49   81       1
    61   47   80       1
    62   20   58       1
    63   22   59       1
    64   22   60       1
    65   47   79       1
    66   46   78       1
    67   33   61       1
    68   33   62       1
    69   34   63       1
    70   34   64       1
    71   34   65       1
    72   35   66       1
    73   35   67       1
    74   35   68       1
    75   36   69       1
    76   37   70       1
    77   40   71       1
    78   41   72       1
    79   41   73       1
    80   42   74       1
    81   42   75       1
    82   45   76       1
    83   46   77       1
@<TRIPOS>SUBSTRUCTURE
     1 CAO1147     1 GROUP             4 A     CAO     0 **** CAO A1147
