@<TRIPOS>MOLECULE
3nyn_SGV_1_ligand
   37    39     1     0     0
SMALL
NO_CHARGES


@<TRIPOS>ATOM
     1 N1         -71.0400    17.4850    19.2790 N.ar         1 SGV577   0.0000
     2 C2         -70.8730    16.1870    19.6080 C.ar         1 SGV577   0.0000
     3 N3         -71.7270    15.5070    20.4030 N.ar         1 SGV577   0.0000
     4 C4         -72.8280    16.1000    20.9250 C.ar         1 SGV577   0.0000
     5 C5         -73.0750    17.5150    20.6080 C.ar         1 SGV577   0.0000
     6 C6         -72.0930    18.1970    19.7300 C.ar         1 SGV577   0.0000
     7 N6         -72.2190    19.4890    19.3770 N.pl3        1 SGV577   0.0000
     8 C7         -74.3250    17.7920    21.3380 C.2          1 SGV577   0.0000
     9 C8         -74.7050    16.6360    21.9800 C.2          1 SGV577   0.0000
    10 N9         -73.8140    15.6580    21.7210 N.pl3        1 SGV577   0.0000
    11 C1'        -73.8830    14.2680    22.2410 C.3          1 SGV577   0.0000
    12 C10        -74.9420    19.1440    21.2910 C.2          1 SGV577   0.0000
    13 N11        -76.2630    19.2410    21.3460 N.am         1 SGV577   0.0000
    14 O12        -74.2430    20.1360    21.2110 O.2          1 SGV577   0.0000
    15 C2'        -72.9320    14.1990    23.4170 C.3          1 SGV577   0.0000
    16 O2'        -72.3830    12.8800    23.5330 O.3          1 SGV577   0.0000
    17 C3'        -73.8230    14.5680    24.5760 C.3          1 SGV577   0.0000
    18 O3'        -73.3520    13.9840    25.7870 O.3          1 SGV577   0.0000
    19 C4'        -75.1980    14.0400    24.1790 C.3          1 SGV577   0.0000
    20 O4'        -75.1820    13.9410    22.7520 O.3          1 SGV577   0.0000
    21 C5'        -76.3780    14.8950    24.6580 C.3          1 SGV577   0.0000
    22 O5'        -75.9990    15.7710    25.7400 O.3          1 SGV577   0.0000
    23 H1         -70.0763    15.7041    19.2446 H            1 SGV577   0.0000
    24 H2         -72.9968    20.0239    19.7071 H            1 SGV577   0.0000
    25 H3         -71.5349    19.9145    18.7845 H            1 SGV577   0.0000
    26 H4         -75.5190    16.5363    22.5522 H            1 SGV577   0.0000
    27 H1'        -73.6115    13.6160    21.5331 H            1 SGV577   0.0000
    28 H6         -76.7000    20.1400    21.3160 H            1 SGV577   0.0000
    29 H7         -76.8224    18.4152    21.4175 H            1 SGV577   0.0000
    30 H2'        -72.2002    14.8725    23.3126 H            1 SGV577   0.0000
    31 H9         -71.7572    12.8468    24.3123 H            1 SGV577   0.0000
    32 H3'        -73.8579    15.5628    24.6719 H            1 SGV577   0.0000
    33 H11        -73.1424    14.7064    26.4460 H            1 SGV577   0.0000
    34 H4'        -75.3026    13.1200    24.5568 H            1 SGV577   0.0000
    35 H5'1       -77.1098    14.2902    24.9721 H            1 SGV577   0.0000
    36 H5'2       -76.7082    15.4486    23.8935 H            1 SGV577   0.0000
    37 H5'        -76.7911    16.3108    26.0249 H            1 SGV577   0.0000
@<TRIPOS>BOND
     1    1    2      ar
     2    1    6      ar
     3    2    3      ar
     4    3    4      ar
     5    4    5      ar
     6    4   10       1
     7    5    6      ar
     8    5    8       1
     9    6    7       1
    10    8    9       2
    11    8   12       1
    12    9   10       1
    13   10   11       1
    14   11   15       1
    15   11   20       1
    16   12   13      am
    17   12   14       2
    18   15   16       1
    19   15   17       1
    20   17   18       1
    21   17   19       1
    22   19   20       1
    23   19   21       1
    24   21   22       1
    25    2   23       1
    26    7   24       1
    27    7   25       1
    28    9   26       1
    29   11   27       1
    30   13   28       1
    31   13   29       1
    32   15   30       1
    33   16   31       1
    34   17   32       1
    35   18   33       1
    36   19   34       1
    37   21   35       1
    38   21   36       1
    39   22   37       1
@<TRIPOS>SUBSTRUCTURE
     1 SGV577      1 GROUP             4 A     SGV     0 **** SGV A 577
