@<TRIPOS>MOLECULE
1yob_FMN_1_ligand
   50    52     1     0     0
SMALL
NO_CHARGES


@<TRIPOS>ATOM
     1 N1          22.5650    32.5830   109.4370 N.2          1 FMN1200   0.0000
     2 C2          21.4710    33.3080   109.8080 C.2          1 FMN1200   0.0000
     3 O2          20.6150    33.8540   109.0960 O.2          1 FMN1200   0.0000
     4 N3          21.2240    33.5040   111.2480 N.pl3        1 FMN1200   0.0000
     5 C4          22.0810    32.9620   112.2510 C.2          1 FMN1200   0.0000
     6 O4          21.7380    33.2090   113.4130 O.2          1 FMN1200   0.0000
     7 C4A         23.1610    32.2440   111.8100 C.2          1 FMN1200   0.0000
     8 N5          23.9290    31.7530   112.7100 N.2          1 FMN1200   0.0000
     9 C5A         25.0600    30.9920   112.3630 C.ar         1 FMN1200   0.0000
    10 C6          25.9240    30.4250   113.3400 C.ar         1 FMN1200   0.0000
    11 C7          27.0720    29.6430   112.9320 C.ar         1 FMN1200   0.0000
    12 C7M         27.8020    29.1590   114.1810 C.3          1 FMN1200   0.0000
    13 C8          27.3570    29.4320   111.5100 C.ar         1 FMN1200   0.0000
    14 C8M         28.5330    28.6300   111.1250 C.3          1 FMN1200   0.0000
    15 C9          26.5230    29.9770   110.5510 C.ar         1 FMN1200   0.0000
    16 C9A         25.3220    30.7910   110.9070 C.ar         1 FMN1200   0.0000
    17 N10         24.5170    31.3080   109.8760 N.pl3        1 FMN1200   0.0000
    18 C10         23.4290    32.0340   110.3040 C.2          1 FMN1200   0.0000
    19 C1'         24.7070    31.1480   108.4280 C.3          1 FMN1200   0.0000
    20 C2'         25.8630    31.9210   107.8340 C.3          1 FMN1200   0.0000
    21 O2'         25.6450    33.3050   108.0300 O.3          1 FMN1200   0.0000
    22 C3'         25.8910    31.5750   106.3740 C.3          1 FMN1200   0.0000
    23 O3'         26.4630    30.2310   106.2520 O.3          1 FMN1200   0.0000
    24 C4'         26.8000    32.4200   105.4440 C.3          1 FMN1200   0.0000
    25 O4'         26.6960    31.9710   104.1180 O.3          1 FMN1200   0.0000
    26 C5'         28.2980    32.4720   105.8220 C.3          1 FMN1200   0.0000
    27 O5'         28.7970    33.6880   105.2270 O.3          1 FMN1200   0.0000
    28 P           30.3600    33.8650   105.1400 P.3          1 FMN1200   0.0000
    29 O1P         30.5250    35.2610   104.4660 O.co2        1 FMN1200   0.0000
    30 O2P         30.9070    33.8700   106.5180 O.co2        1 FMN1200  -1.0000
    31 O3P         30.9590    32.7780   104.2420 O.co2        1 FMN1200  -1.0000
    32 H1          20.4265    34.0364   111.5320 H            1 FMN1200   0.0000
    33 H2          25.7379    30.5670   114.3122 H            1 FMN1200   0.0000
    34 H7M1        28.5982    28.6168   113.9126 H            1 FMN1200   0.0000
    35 H7M2        28.1014    29.9473   114.7186 H            1 FMN1200   0.0000
    36 H7M3        27.1849    28.5957   114.7305 H            1 FMN1200   0.0000
    37 H8M1        28.5898    28.5790   110.1279 H            1 FMN1200   0.0000
    38 H8M2        29.3615    29.0594   111.4845 H            1 FMN1200   0.0000
    39 H8M3        28.4453    27.7077   111.5015 H            1 FMN1200   0.0000
    40 H9          26.7311    29.8208   109.5855 H            1 FMN1200   0.0000
    41 H1'1        23.8690    31.4482   107.9723 H            1 FMN1200   0.0000
    42 H1'2        24.8579    30.1770   108.2425 H            1 FMN1200   0.0000
    43 H2'         26.7200    31.6440   108.2685 H            1 FMN1200   0.0000
    44 H13         25.5803    33.4969   109.0093 H            1 FMN1200   0.0000
    45 H3'         24.9578    31.5731   106.0147 H            1 FMN1200   0.0000
    46 H15         25.7975    29.6236   105.8182 H            1 FMN1200   0.0000
    47 H4'         26.4560    33.3587   105.4667 H            1 FMN1200   0.0000
    48 H17         27.2869    32.5247   103.5313 H            1 FMN1200   0.0000
    49 H5'1        28.7804    31.6776   105.4530 H            1 FMN1200   0.0000
    50 H5'2        28.4082    32.4970   106.8156 H            1 FMN1200   0.0000
@<TRIPOS>BOND
     1    1    2       1
     2    1   18       2
     3    2    3       2
     4    2    4       1
     5    4    5       1
     6    5    6       2
     7    5    7       1
     8    7    8       2
     9    7   18       1
    10    8    9       1
    11    9   10      ar
    12    9   16      ar
    13   10   11      ar
    14   11   12       1
    15   11   13      ar
    16   13   14       1
    17   13   15      ar
    18   15   16      ar
    19   16   17       1
    20   17   18       1
    21   17   19       1
    22   19   20       1
    23   20   21       1
    24   20   22       1
    25   22   23       1
    26   22   24       1
    27   24   25       1
    28   24   26       1
    29   26   27       1
    30   27   28       1
    31   28   29      ar
    32   28   30      ar
    33   28   31      ar
    34    4   32       1
    35   10   33       1
    36   12   34       1
    37   12   35       1
    38   12   36       1
    39   14   37       1
    40   14   38       1
    41   14   39       1
    42   15   40       1
    43   19   41       1
    44   19   42       1
    45   20   43       1
    46   21   44       1
    47   22   45       1
    48   23   46       1
    49   24   47       1
    50   25   48       1
    51   26   49       1
    52   26   50       1
@<TRIPOS>SUBSTRUCTURE
     1 FMN1200     1 GROUP             4 A     FMN     0 **** FMN A1200
