@<TRIPOS>MOLECULE
4o8j_ADN_2_ligand
   33    35     1     0     0
SMALL
NO_CHARGES


@<TRIPOS>ATOM
     1 O5'         65.5070    75.1860    71.1210 O.3          1 ADN401   0.0000
     2 C5'         65.7410    75.8650    69.8880 C.3          1 ADN401   0.0000
     3 C4'         65.0590    75.1580    68.7360 C.3          1 ADN401   0.0000
     4 O4'         65.5620    73.8010    68.6420 O.3          1 ADN401   0.0000
     5 C3'         63.5440    75.0340    68.8320 C.3          1 ADN401   0.0000
     6 O3'         63.0120    75.0310    67.5140 O.3          1 ADN401   0.0000
     7 C2'         63.3610    73.6570    69.4690 C.3          1 ADN401   0.0000
     8 O2'         62.1250    73.0320    69.1960 O.3          1 ADN401   0.0000
     9 C1'         64.5040    72.8810    68.8270 C.3          1 ADN401   0.0000
    10 N9          65.0070    71.7860    69.6390 N.pl3        1 ADN401   0.0000
    11 C8          65.8170    71.9010    70.7230 C.2          1 ADN401   0.0000
    12 N7          66.0620    70.6990    71.2000 N.2          1 ADN401   0.0000
    13 C5          65.4270    69.7610    70.4440 C.ar         1 ADN401   0.0000
    14 C6          65.3390    68.3500    70.4540 C.ar         1 ADN401   0.0000
    15 N6          66.0160    67.5930    71.4340 N.pl3        1 ADN401   0.0000
    16 N1          64.5870    67.7470    69.5000 N.ar         1 ADN401   1.0000
    17 C2          63.9530    68.4520    68.5830 C.ar         1 ADN401   0.0000
    18 N3          64.0190    69.7880    68.5220 N.ar         1 ADN401   0.0000
    19 C4          64.7390    70.4560    69.4250 C.ar         1 ADN401   0.0000
    20 H5'         64.5242    75.1545    71.3029 H            1 ADN401   0.0000
    21 H5'1        66.7254    75.8965    69.7146 H            1 ADN401   0.0000
    22 H5'2        65.3845    76.7968    69.9559 H            1 ADN401   0.0000
    23 H4'         65.2851    75.6397    67.8893 H            1 ADN401   0.0000
    24 H3'         63.1456    75.7598    69.3928 H            1 ADN401   0.0000
    25 H6          62.0953    75.4305    67.5236 H            1 ADN401   0.0000
    26 H2'         63.5021    73.7168    70.4572 H            1 ADN401   0.0000
    27 H8          61.3794    73.6055    69.5353 H            1 ADN401   0.0000
    28 H1'         64.2097    72.5289    67.9385 H            1 ADN401   0.0000
    29 H10         66.1696    72.7586    71.0975 H            1 ADN401   0.0000
    30 H11         65.9466    66.5954    71.4314 H            1 ADN401   0.0000
    31 H12         66.5651    68.0542    72.1310 H            1 ADN401   0.0000
    32 H13         63.3997    67.9684    67.9048 H            1 ADN401   0.0000
    33 H14         64.5118    66.7499    69.4916 H            1 ADN401   0.0000
@<TRIPOS>BOND
     1    1    2       1
     2    2    3       1
     3    3    4       1
     4    3    5       1
     5    4    9       1
     6    5    6       1
     7    5    7       1
     8    7    8       1
     9    7    9       1
    10    9   10       1
    11   10   11       1
    12   10   19       1
    13   11   12       2
    14   12   13       1
    15   13   14      ar
    16   13   19      ar
    17   14   15       1
    18   14   16      ar
    19   16   17      ar
    20   17   18      ar
    21   18   19      ar
    22    1   20       1
    23    2   21       1
    24    2   22       1
    25    3   23       1
    26    5   24       1
    27    6   25       1
    28    7   26       1
    29    8   27       1
    30    9   28       1
    31   11   29       1
    32   15   30       1
    33   15   31       1
    34   17   32       1
    35   16   33       1
@<TRIPOS>SUBSTRUCTURE
     1 ADN401      1 GROUP             4 B     ADN     0 **** ADN B 401
