@<TRIPOS>MOLECULE
3eya_TDP_7_ligand
   43    44     1     0     0
SMALL
NO_CHARGES


@<TRIPOS>ATOM
     1 N1'        -34.3850    50.3360   -31.0380 N.ar         1 TDP611   1.0000
     2 C2'        -34.2810    50.2100   -29.7040 C.ar         1 TDP611   0.0000
     3 C2A        -34.2040    48.8350   -29.0840 C.3          1 TDP611   0.0000
     4 N3'        -34.2640    51.3260   -28.9280 N.ar         1 TDP611   0.0000
     5 C4'        -34.3230    52.5720   -29.4640 C.ar         1 TDP611   0.0000
     6 N4'        -34.2840    53.6570   -28.6370 N.pl3        1 TDP611   0.0000
     7 C5'        -34.4320    52.6950   -30.8590 C.ar         1 TDP611   0.0000
     8 C6'        -34.4630    51.5360   -31.6210 C.ar         1 TDP611   0.0000
     9 C35        -34.5660    54.0380   -31.5670 C.3          1 TDP611   0.0000
    10 N3         -35.9720    54.4820   -31.4160 N.2          1 TDP611   1.0000
    11 C2         -36.3800    55.3380   -30.4400 C.2          1 TDP611   0.0000
    12 S1         -38.0940    55.7230   -30.4250 S.3          1 TDP611   0.0000
    13 C5         -38.2920    54.7080   -31.7850 C.2          1 TDP611   0.0000
    14 C4         -37.0050    54.0960   -32.2160 C.2          1 TDP611   0.0000
    15 C4A        -36.9490    53.1880   -33.4110 C.3          1 TDP611   0.0000
    16 C5A        -39.6970    54.6330   -32.3010 C.3          1 TDP611   0.0000
    17 C5B        -40.6340    54.3570   -31.1490 C.3          1 TDP611   0.0000
    18 O5G        -41.7460    53.6480   -31.7090 O.3          1 TDP611   0.0000
    19 P1         -42.9550    53.3140   -30.6920 P.3          1 TDP611   0.0000
    20 O11        -43.0960    54.7560   -30.0340 O.3          1 TDP611   0.0000
    21 O12        -44.1750    52.9530   -31.4820 O.co2        1 TDP611   0.0000
    22 O13        -42.6680    52.3820   -29.5750 O.co2        1 TDP611  -1.0000
    23 P2         -43.7410    56.0960   -30.7130 P.3          1 TDP611   0.0000
    24 O21        -42.6570    57.1390   -30.5570 O.co2        1 TDP611   0.0000
    25 O22        -44.9770    56.1240   -29.8330 O.co2        1 TDP611  -1.0000
    26 O23        -43.9870    55.7520   -32.1850 O.co2        1 TDP611  -1.0000
    27 H2A1       -34.1305    48.9210   -28.0904 H            1 TDP611   0.0000
    28 H2A2       -35.0292    48.3191   -29.3137 H            1 TDP611   0.0000
    29 H2A3       -33.4013    48.3545   -29.4373 H            1 TDP611   0.0000
    30 H4'1       -34.3267    54.5796   -29.0203 H            1 TDP611   0.0000
    31 H4'2       -34.2127    53.5294   -27.6477 H            1 TDP611   0.0000
    32 H6'        -34.5445    51.5991   -32.6157 H            1 TDP611   0.0000
    33 H7         -34.3420    53.9370   -32.5363 H            1 TDP611   0.0000
    34 H8         -33.9501    54.7067   -31.1505 H            1 TDP611   0.0000
    35 H9         -35.7434    55.7241   -29.7724 H            1 TDP611   0.0000
    36 H4A1       -37.8660    53.0884   -33.7972 H            1 TDP611   0.0000
    37 H4A2       -36.3383    53.5799   -34.0991 H            1 TDP611   0.0000
    38 H4A3       -36.6054    52.2912   -33.1324 H            1 TDP611   0.0000
    39 H5A1       -39.7676    53.8964   -32.9736 H            1 TDP611   0.0000
    40 H5A2       -39.9423    55.5018   -32.7311 H            1 TDP611   0.0000
    41 H5B1       -40.9404    55.2149   -30.7366 H            1 TDP611   0.0000
    42 H5B2       -40.1783    53.7981   -30.4561 H            1 TDP611   0.0000
    43 H1'        -34.4044    49.5138   -31.6068 H            1 TDP611   0.0000
@<TRIPOS>BOND
     1    1    2      ar
     2    1    8      ar
     3    2    3       1
     4    2    4      ar
     5    4    5      ar
     6    5    6       1
     7    5    7      ar
     8    7    8      ar
     9    7    9       1
    10    9   10       1
    11   10   11       2
    12   10   14       1
    13   11   12       1
    14   12   13       1
    15   13   14       2
    16   13   16       1
    17   14   15       1
    18   16   17       1
    19   17   18       1
    20   18   19       1
    21   19   20       1
    22   19   21      ar
    23   19   22      ar
    24   20   23       1
    25   23   24      ar
    26   23   25      ar
    27   23   26      ar
    28    3   27       1
    29    3   28       1
    30    3   29       1
    31    6   30       1
    32    6   31       1
    33    8   32       1
    34    9   33       1
    35    9   34       1
    36   11   35       1
    37   15   36       1
    38   15   37       1
    39   15   38       1
    40   16   39       1
    41   16   40       1
    42   17   41       1
    43   17   42       1
    44    1   43       1
@<TRIPOS>SUBSTRUCTURE
     1 TDP611      1 GROUP             4 G     TDP     0 **** TDP G 611
