@<TRIPOS>MOLECULE
1qs2_NAD_1_ligand
   70    74     1     0     0
SMALL
NO_CHARGES


@<TRIPOS>ATOM
     1 PA          28.3800     4.2410    60.2640 P.3          1 NAD500   0.0000
     2 O1A         28.0410     3.9390    61.7010 O.co2        1 NAD500   0.0000
     3 O2A         28.6050     5.6740    59.9720 O.co2        1 NAD500  -1.0000
     4 O5B         29.6830     3.4000    59.7450 O.3          1 NAD500   0.0000
     5 C5B         30.7990     3.1530    60.6130 C.3          1 NAD500   0.0000
     6 C4B         32.0440     3.4650    59.7970 C.3          1 NAD500   0.0000
     7 O4B         31.8420     3.6120    58.3720 O.3          1 NAD500   0.0000
     8 C3B         32.9090     4.6250    60.2910 C.3          1 NAD500   0.0000
     9 O3B         34.3230     4.3670    60.3860 O.3          1 NAD500   0.0000
    10 C2B         32.6270     5.6810    59.2360 C.3          1 NAD500   0.0000
    11 O2B         33.6780     6.6440    59.1740 O.3          1 NAD500   0.0000
    12 C1B         32.6150     4.7630    58.0440 C.3          1 NAD500   0.0000
    13 N9A         33.0570     5.1870    56.7020 N.pl3        1 NAD500   0.0000
    14 C8A         34.3270     4.8910    56.3940 C.2          1 NAD500   0.0000
    15 N7A         34.6520     5.2660    55.1540 N.2          1 NAD500   0.0000
    16 C5A         33.5370     5.8020    54.7140 C.ar         1 NAD500   0.0000
    17 C6A         33.3750     6.3410    53.4240 C.ar         1 NAD500   0.0000
    18 N6A         34.4200     6.3220    52.5760 N.pl3        1 NAD500   0.0000
    19 N1A         32.1330     6.8610    53.1130 N.ar         1 NAD500   0.0000
    20 C2A         31.1310     6.8530    54.0190 C.ar         1 NAD500   0.0000
    21 N3A         31.3360     6.3170    55.2560 N.ar         1 NAD500   0.0000
    22 C4A         32.5050     5.7870    55.6440 C.ar         1 NAD500   0.0000
    23 O3          27.2230     3.9290    59.1570 O.3          1 NAD500   0.0000
    24 PN          25.6510     3.5980    59.0210 P.3          1 NAD500   0.0000
    25 O1N         25.2410     4.1970    57.7140 O.co2        1 NAD500   0.0000
    26 O2N         25.0960     4.2200    60.2520 O.co2        1 NAD500  -1.0000
    27 O5D         25.4550     2.0150    58.8690 O.3          1 NAD500   0.0000
    28 C5D         25.0420     1.1580    59.9480 C.3          1 NAD500   0.0000
    29 C4D         23.5450     0.9500    60.1690 C.3          1 NAD500   0.0000
    30 O4D         22.7060     2.0860    60.4530 O.3          1 NAD500   0.0000
    31 C3D         22.9580     0.1400    59.0740 C.3          1 NAD500   0.0000
    32 O3D         22.4610    -1.1110    59.5370 O.3          1 NAD500   0.0000
    33 C2D         21.9190     1.0280    58.4370 C.3          1 NAD500   0.0000
    34 O2D         20.7120     0.3290    58.1360 O.3          1 NAD500   0.0000
    35 C1D         21.7060     2.1480    59.4200 C.3          1 NAD500   0.0000
    36 N1N         21.3750     3.5110    58.8880 N.ar         1 NAD500   1.0000
    37 C2N         22.0800     4.6660    59.3520 C.ar         1 NAD500   0.0000
    38 C3N         21.6600     5.9480    58.9510 C.ar         1 NAD500   0.0000
    39 C7N         22.3840     7.1890    59.4240 C.2          1 NAD500   0.0000
    40 O7N         21.8450     8.2460    59.2370 O.2          1 NAD500   0.0000
    41 N7N         23.4840     7.1160    60.1580 N.am         1 NAD500   0.0000
    42 C4N         20.5360     6.0500    58.0800 C.ar         1 NAD500   0.0000
    43 C5N         19.8040     4.9550    57.5790 C.ar         1 NAD500   0.0000
    44 C6N         20.2310     3.6730    57.9900 C.ar         1 NAD500   0.0000
    45 H5B1        30.8063     2.1968    60.9056 H            1 NAD500   0.0000
    46 H5B2        30.7524     3.7470    61.4161 H            1 NAD500   0.0000
    47 H4B         32.6226     2.6549    59.8919 H            1 NAD500   0.0000
    48 H3B         32.5682     4.9404    61.1767 H            1 NAD500   0.0000
    49 H5          34.7900     5.1871    60.7168 H            1 NAD500   0.0000
    50 H2B         31.7370     6.1147    59.3767 H            1 NAD500   0.0000
    51 H7          33.4655     7.3246    58.4729 H            1 NAD500   0.0000
    52 H1B         33.4876     4.3326    58.2751 H            1 NAD500   0.0000
    53 H8A         34.9607     4.4397    57.0223 H            1 NAD500   0.0000
    54 H6A1        34.3238     6.7004    51.6554 H            1 NAD500   0.0000
    55 H6A2        35.2926     5.9295    52.8666 H            1 NAD500   0.0000
    56 H2A         30.2396     7.2398    53.7827 H            1 NAD500   0.0000
    57 H5D1        25.4162     1.5420    60.7921 H            1 NAD500   0.0000
    58 H5D2        25.4457     0.2580    59.7836 H            1 NAD500   0.0000
    59 H4D         23.4812     0.3713    60.9820 H            1 NAD500   0.0000
    60 H3D         23.6736    -0.0383    58.3986 H            1 NAD500   0.0000
    61 H17         21.4814    -1.1720    59.3455 H            1 NAD500   0.0000
    62 H2D         22.2927     1.4073    57.5906 H            1 NAD500   0.0000
    63 H19         20.5367     0.3748    57.1526 H            1 NAD500   0.0000
    64 H1D         20.8687     1.8786    59.8958 H            1 NAD500   0.0000
    65 H2N         22.8681     4.5629    59.9589 H            1 NAD500   0.0000
    66 H7N1        23.9421     7.9531    60.4569 H            1 NAD500   0.0000
    67 H7N2        23.8564     6.2238    60.4133 H            1 NAD500   0.0000
    68 H4N         20.2456     6.9663    57.8042 H            1 NAD500   0.0000
    69 H5N         19.0241     5.0790    56.9655 H            1 NAD500   0.0000
    70 H6N         19.7440     2.8634    57.6622 H            1 NAD500   0.0000
@<TRIPOS>BOND
     1    1    2      ar
     2    1    3      ar
     3    1    4       1
     4    1   23       1
     5    4    5       1
     6    5    6       1
     7    6    7       1
     8    6    8       1
     9    7   12       1
    10    8    9       1
    11    8   10       1
    12   10   11       1
    13   10   12       1
    14   12   13       1
    15   13   14       1
    16   13   22       1
    17   14   15       2
    18   15   16       1
    19   16   17      ar
    20   16   22      ar
    21   17   18       1
    22   17   19      ar
    23   19   20      ar
    24   20   21      ar
    25   21   22      ar
    26   23   24       1
    27   24   25      ar
    28   24   26      ar
    29   24   27       1
    30   27   28       1
    31   28   29       1
    32   29   30       1
    33   29   31       1
    34   30   35       1
    35   31   32       1
    36   31   33       1
    37   33   34       1
    38   33   35       1
    39   35   36       1
    40   36   37      ar
    41   36   44      ar
    42   37   38      ar
    43   38   39       1
    44   38   42      ar
    45   39   40       2
    46   39   41      am
    47   42   43      ar
    48   43   44      ar
    49   44   70       1
    50    5   45       1
    51    5   46       1
    52    6   47       1
    53    8   48       1
    54    9   49       1
    55   10   50       1
    56   11   51       1
    57   12   52       1
    58   14   53       1
    59   18   54       1
    60   18   55       1
    61   20   56       1
    62   43   69       1
    63   28   57       1
    64   28   58       1
    65   29   59       1
    66   31   60       1
    67   32   61       1
    68   33   62       1
    69   34   63       1
    70   35   64       1
    71   37   65       1
    72   41   66       1
    73   41   67       1
    74   42   68       1
@<TRIPOS>SUBSTRUCTURE
     1 NAD500      1 GROUP             4 A     NAD     0 **** NAD A 500
