@<TRIPOS>MOLECULE
2yg4_FAD_2_ligand
   84    89     1     0     0
SMALL
NO_CHARGES


@<TRIPOS>ATOM
     1 PA         -21.1130    33.6300   -12.5790 P.3          1 FAD600   0.0000
     2 O1A        -22.4880    34.0550   -12.2040 O.co2        1 FAD600   0.0000
     3 O2A        -20.5110    32.6980   -11.5290 O.co2        1 FAD600  -1.0000
     4 O5B        -20.1800    34.9600   -12.6640 O.3          1 FAD600   0.0000
     5 C5B        -20.4620    36.1050   -13.4530 C.3          1 FAD600   0.0000
     6 C4B        -19.7300    37.2510   -12.7870 C.3          1 FAD600   0.0000
     7 O4B        -19.9130    38.4670   -13.5260 O.3          1 FAD600   0.0000
     8 C3B        -20.2520    37.5190   -11.3840 C.3          1 FAD600   0.0000
     9 O3B        -19.0620    37.6510   -10.5770 O.3          1 FAD600   0.0000
    10 C2B        -20.9210    38.8880   -11.4840 C.3          1 FAD600   0.0000
    11 O2B        -20.6900    39.6870   -10.3080 O.3          1 FAD600   0.0000
    12 C1B        -20.1790    39.5320   -12.6420 C.3          1 FAD600   0.0000
    13 N9A        -20.9740    40.5050   -13.4220 N.pl3        1 FAD600   0.0000
    14 C8A        -22.2630    40.4670   -13.9370 C.2          1 FAD600   0.0000
    15 N7A        -22.5090    41.6360   -14.6400 N.2          1 FAD600   0.0000
    16 C5A        -21.4030    42.4130   -14.5630 C.ar         1 FAD600   0.0000
    17 C6A        -21.0660    43.6880   -15.0390 C.ar         1 FAD600   0.0000
    18 N6A        -21.8310    44.4200   -15.8710 N.pl3        1 FAD600   0.0000
    19 N1A        -19.7910    44.1610   -14.7610 N.ar         1 FAD600   0.0000
    20 C2A        -18.8700    43.4490   -14.0390 C.ar         1 FAD600   0.0000
    21 N3A        -19.1950    42.2200   -13.5550 N.ar         1 FAD600   0.0000
    22 C4A        -20.4420    41.7070   -13.8230 C.ar         1 FAD600   0.0000
    23 N1         -22.6180    24.4180   -10.1450 N.2          1 FAD600   0.0000
    24 C2         -21.8520    23.3240    -9.8050 C.2          1 FAD600   0.0000
    25 O2         -20.8600    23.0300   -10.4860 O.2          1 FAD600   0.0000
    26 N3         -22.1830    22.5430    -8.7010 N.pl3        1 FAD600   0.0000
    27 C4         -23.2210    22.8860    -7.8700 C.2          1 FAD600   0.0000
    28 O4         -23.3550    22.2990    -6.8160 O.2          1 FAD600   0.0000
    29 C4X        -23.9320    24.0630    -8.0880 C.2          1 FAD600   0.0000
    30 N5         -25.0940    24.3570    -7.3340 N.2          1 FAD600   0.0000
    31 C5X        -25.4510    25.7170    -7.2460 C.ar         1 FAD600   0.0000
    32 C6         -26.1260    26.2080    -6.0960 C.ar         1 FAD600   0.0000
    33 C7         -26.4470    27.5840    -6.0460 C.ar         1 FAD600   0.0000
    34 C7M        -27.2940    28.1400    -4.8830 C.3          1 FAD600   0.0000
    35 C8         -26.0180    28.4300    -7.1140 C.ar         1 FAD600   0.0000
    36 C8M        -26.3770    29.8720    -7.1390 C.3          1 FAD600   0.0000
    37 C9         -25.3070    27.9570    -8.2120 C.ar         1 FAD600   0.0000
    38 C9A        -25.0070    26.5960    -8.2980 C.ar         1 FAD600   0.0000
    39 N10        -24.2600    26.0790    -9.4030 N.pl3        1 FAD600   0.0000
    40 C10        -23.6480    24.8190    -9.2810 C.2          1 FAD600   0.0000
    41 C1'        -24.0110    26.9010   -10.6030 C.3          1 FAD600   0.0000
    42 C2'        -22.6370    27.5230   -10.6420 C.3          1 FAD600   0.0000
    43 O2'        -22.2880    28.2210    -9.4390 O.3          1 FAD600   0.0000
    44 C3'        -22.6370    28.3960   -11.8860 C.3          1 FAD600   0.0000
    45 O3'        -22.9520    27.5820   -12.9950 O.3          1 FAD600   0.0000
    46 C4'        -21.2920    28.9950   -12.2120 C.3          1 FAD600   0.0000
    47 O4'        -20.8700    29.6970   -11.0710 O.3          1 FAD600   0.0000
    48 C5'        -21.3990    29.9830   -13.3790 C.3          1 FAD600   0.0000
    49 O5'        -20.2130    30.7660   -13.5170 O.3          1 FAD600   0.0000
    50 P          -20.0660    31.9130   -14.6550 P.3          1 FAD600   0.0000
    51 O1P        -18.6640    32.3240   -14.5770 O.co2        1 FAD600   0.0000
    52 O2P        -20.6060    31.2820   -15.9450 O.co2        1 FAD600  -1.0000
    53 O3P        -21.1170    33.0110   -14.0700 O.3          1 FAD600   0.0000
    54 H5B1       -21.4459    36.2828   -13.4705 H            1 FAD600   0.0000
    55 H5B2       -20.1301    35.9751   -14.3873 H            1 FAD600   0.0000
    56 H4B        -18.7543    37.0368   -12.7407 H            1 FAD600   0.0000
    57 H3B        -20.8702    36.8054   -11.0544 H            1 FAD600   0.0000
    58 H5         -18.5085    38.4095   -10.9209 H            1 FAD600   0.0000
    59 H2B        -21.8979    38.8025   -11.6800 H            1 FAD600   0.0000
    60 H7         -19.7072    39.8272   -10.1880 H            1 FAD600   0.0000
    61 H1B        -19.3263    39.9478   -12.3256 H            1 FAD600   0.0000
    62 H8A        -22.9115    39.7149   -13.8193 H            1 FAD600   0.0000
    63 H6A1       -21.5231    45.3238   -16.1682 H            1 FAD600   0.0000
    64 H6A2       -22.7070    44.0598   -16.1917 H            1 FAD600   0.0000
    65 H2A        -17.9619    43.8314   -13.8683 H            1 FAD600   0.0000
    66 H13        -21.6545    21.7160    -8.5094 H            1 FAD600   0.0000
    67 H14        -26.3675    25.5967    -5.3423 H            1 FAD600   0.0000
    68 H7M1       -27.4239    29.1239    -5.0059 H            1 FAD600   0.0000
    69 H7M2       -28.1844    27.6850    -4.8719 H            1 FAD600   0.0000
    70 H7M3       -26.8228    27.9716    -4.0172 H            1 FAD600   0.0000
    71 H8M1       -25.9906    30.2976    -7.9573 H            1 FAD600   0.0000
    72 H8M2       -27.3723    29.9675    -7.1520 H            1 FAD600   0.0000
    73 H8M3       -26.0097    30.3211    -6.3245 H            1 FAD600   0.0000
    74 H21        -25.0137    28.5853    -8.9325 H            1 FAD600   0.0000
    75 H1'1       -24.6899    27.6348   -10.6287 H            1 FAD600   0.0000
    76 H1'2       -24.1170    26.3204   -11.4102 H            1 FAD600   0.0000
    77 H2'        -21.9701    26.7905   -10.7787 H            1 FAD600   0.0000
    78 H25        -21.6666    28.9732    -9.6584 H            1 FAD600   0.0000
    79 H3'        -23.3187    29.1216   -11.7922 H            1 FAD600   0.0000
    80 H27        -22.2673    26.8585   -13.0826 H            1 FAD600   0.0000
    81 H4'        -20.6376    28.2717   -12.4325 H            1 FAD600   0.0000
    82 H29        -20.7410    30.6614   -11.3017 H            1 FAD600   0.0000
    83 H5'1       -22.1739    30.5939   -13.2166 H            1 FAD600   0.0000
    84 H5'2       -21.5497    29.4709   -14.2246 H            1 FAD600   0.0000
@<TRIPOS>BOND
     1    1    2      ar
     2    1    3      ar
     3    1    4       1
     4    1   53       1
     5    4    5       1
     6    5    6       1
     7    6    7       1
     8    6    8       1
     9    7   12       1
    10    8    9       1
    11    8   10       1
    12   10   11       1
    13   10   12       1
    14   12   13       1
    15   13   14       1
    16   13   22       1
    17   14   15       2
    18   15   16       1
    19   16   17      ar
    20   16   22      ar
    21   17   18       1
    22   17   19      ar
    23   19   20      ar
    24   20   21      ar
    25   21   22      ar
    26   23   24       1
    27   23   40       2
    28   24   25       2
    29   24   26       1
    30   26   27       1
    31   27   28       2
    32   27   29       1
    33   29   30       2
    34   29   40       1
    35   30   31       1
    36   31   32      ar
    37   31   38      ar
    38   32   33      ar
    39   33   34       1
    40   33   35      ar
    41   35   36       1
    42   35   37      ar
    43   37   38      ar
    44   38   39       1
    45   39   40       1
    46   39   41       1
    47   41   42       1
    48   42   43       1
    49   42   44       1
    50   44   45       1
    51   44   46       1
    52   46   47       1
    53   46   48       1
    54   48   49       1
    55   49   50       1
    56   50   51      ar
    57   50   52      ar
    58   50   53       1
    59   48   84       1
    60    5   54       1
    61    5   55       1
    62    6   56       1
    63    8   57       1
    64    9   58       1
    65   10   59       1
    66   11   60       1
    67   12   61       1
    68   14   62       1
    69   18   63       1
    70   18   64       1
    71   20   65       1
    72   26   66       1
    73   32   67       1
    74   34   68       1
    75   34   69       1
    76   34   70       1
    77   36   71       1
    78   36   72       1
    79   36   73       1
    80   37   74       1
    81   41   75       1
    82   41   76       1
    83   42   77       1
    84   43   78       1
    85   44   79       1
    86   45   80       1
    87   46   81       1
    88   47   82       1
    89   48   83       1
@<TRIPOS>SUBSTRUCTURE
     1 FAD600      1 GROUP             4 B     FAD     0 **** FAD B 600
