@<TRIPOS>MOLECULE
1mp4_UPG_2_ligand
   58    60     1     0     0
SMALL
NO_CHARGES


@<TRIPOS>ATOM
     1 N1          91.9790    31.4680     7.9730 N.pl3        1 UPG502   0.0000
     2 C2          91.1100    30.7420     7.1360 C.2          1 UPG502   0.0000
     3 N3          91.6830    29.7030     6.4220 N.pl3        1 UPG502   0.0000
     4 C4          93.0470    29.3120     6.4420 C.2          1 UPG502   0.0000
     5 C5          93.8720    30.1010     7.3170 C.2          1 UPG502   0.0000
     6 C6          93.3470    31.1110     8.0210 C.2          1 UPG502   0.0000
     7 O2          89.9320    31.0400     7.0850 O.2          1 UPG502   0.0000
     8 O4          93.3830    28.3690     5.7420 O.2          1 UPG502   0.0000
     9 C1C         91.4020    32.6100     8.7660 C.3          1 UPG502   0.0000
    10 C2C         91.5720    32.4940    10.2820 C.3          1 UPG502   0.0000
    11 O2C         90.5880    31.6630    10.9210 O.3          1 UPG502   0.0000
    12 C3C         91.5430    33.9700    10.7120 C.3          1 UPG502   0.0000
    13 C4C         92.3360    34.6300     9.5740 C.3          1 UPG502   0.0000
    14 O4C         92.0370    33.8170     8.3930 O.3          1 UPG502   0.0000
    15 O3C         90.2480    34.4930    11.0900 O.3          1 UPG502   0.0000
    16 C5C         93.8790    34.6100     9.6830 C.3          1 UPG502   0.0000
    17 O5C         94.3620    34.6270    11.0380 O.3          1 UPG502   0.0000
    18 PA          95.6810    33.7660    11.5070 P.3          1 UPG502   0.0000
    19 O1A         95.5640    32.2770    11.3070 O.co2        1 UPG502   0.0000
    20 O2A         96.0080    33.9110    12.9560 O.co2        1 UPG502  -1.0000
    21 O3A         96.8650    34.4320    10.5600 O.3          1 UPG502   0.0000
    22 PB          98.2630    33.5900    10.3180 P.3          1 UPG502   0.0000
    23 O1B         98.9520    33.3300    11.7200 O.co2        1 UPG502   0.0000
    24 O2B         97.9530    32.4110     9.5390 O.co2        1 UPG502  -1.0000
    25 O3B         99.1350    34.5740     9.3790 O.3          1 UPG502   0.0000
    26 C1'         98.6860    35.1910     8.1820 C.3          1 UPG502   0.0000
    27 C2'         99.8550    35.7190     7.2790 C.3          1 UPG502   0.0000
    28 C3'        100.6810    36.8210     8.0570 C.3          1 UPG502   0.0000
    29 C4'         99.7710    37.9490     8.3740 C.3          1 UPG502   0.0000
    30 C5'         98.5590    37.4740     9.2580 C.3          1 UPG502   0.0000
    31 C6'         97.6320    38.6180     9.5870 C.3          1 UPG502   0.0000
    32 O2'        100.7760    34.7090     6.8610 O.3          1 UPG502   0.0000
    33 O3'        101.7610    37.3340     7.2750 O.3          1 UPG502   0.0000
    34 O4'        100.5320    38.9340     9.0140 O.3          1 UPG502   0.0000
    35 O5'         97.8190    36.3960     8.5680 O.3          1 UPG502   0.0000
    36 O6'         96.8930    38.2860    10.7600 O.3          1 UPG502   0.0000
    37 H1          91.0731    29.1741     5.8319 H            1 UPG502   0.0000
    38 H2          94.8466    29.8931     7.4001 H            1 UPG502   0.0000
    39 H3          93.9542    31.6416     8.6125 H            1 UPG502   0.0000
    40 H1C         90.4267    32.6837     8.5579 H            1 UPG502   0.0000
    41 H2C         92.4799    32.1218    10.4751 H            1 UPG502   0.0000
    42 H6          90.7631    31.6357    11.9052 H            1 UPG502   0.0000
    43 H3C         92.1187    34.0345    11.5271 H            1 UPG502   0.0000
    44 H4C         92.0158    35.5669     9.4335 H            1 UPG502   0.0000
    45 H9          90.3398    35.4541    11.3506 H            1 UPG502   0.0000
    46 H5C1        94.2397    35.4132     9.2089 H            1 UPG502   0.0000
    47 H5C2        94.2165    33.7807     9.2377 H            1 UPG502   0.0000
    48 H1'         98.1341    34.5398     7.6612 H            1 UPG502   0.0000
    49 H2'         99.4578    36.1401     6.4636 H            1 UPG502   0.0000
    50 H3'        101.0389    36.4323     8.9060 H            1 UPG502   0.0000
    51 H4'         99.4156    38.3244     7.5180 H            1 UPG502   0.0000
    52 H5'         98.9208    37.1071    10.1150 H            1 UPG502   0.0000
    53 H6'1        97.0027    38.7707     8.8250 H            1 UPG502   0.0000
    54 H6'2        98.1661    39.4476     9.7496 H            1 UPG502   0.0000
    55 H19        101.5132    34.6317     7.5323 H            1 UPG502   0.0000
    56 H20        102.5806    36.7846     7.4376 H            1 UPG502   0.0000
    57 H21        100.4986    39.7796     8.4812 H            1 UPG502   0.0000
    58 H6'         96.2743    39.0378    10.9881 H            1 UPG502   0.0000
@<TRIPOS>BOND
     1    1    2       1
     2    1    6       1
     3    1    9       1
     4    2    3       1
     5    2    7       2
     6    3    4       1
     7    4    5       1
     8    4    8       2
     9    5    6       2
    10    9   10       1
    11    9   14       1
    12   10   11       1
    13   10   12       1
    14   12   13       1
    15   12   15       1
    16   13   14       1
    17   13   16       1
    18   16   17       1
    19   17   18       1
    20   18   19      ar
    21   18   20      ar
    22   18   21       1
    23   21   22       1
    24   22   23      ar
    25   22   24      ar
    26   22   25       1
    27   25   26       1
    28   26   27       1
    29   26   35       1
    30   27   28       1
    31   27   32       1
    32   28   29       1
    33   28   33       1
    34   29   30       1
    35   29   34       1
    36   30   31       1
    37   30   35       1
    38   31   36       1
    39    3   37       1
    40    5   38       1
    41    6   39       1
    42    9   40       1
    43   10   41       1
    44   11   42       1
    45   12   43       1
    46   13   44       1
    47   15   45       1
    48   16   46       1
    49   16   47       1
    50   36   58       1
    51   34   57       1
    52   26   48       1
    53   27   49       1
    54   28   50       1
    55   29   51       1
    56   30   52       1
    57   31   53       1
    58   31   54       1
    59   32   55       1
    60   33   56       1
@<TRIPOS>SUBSTRUCTURE
     1 UPG502      1 GROUP             4 B     UPG     0 **** UPG B 502
