@<TRIPOS>MOLECULE
4rqu_NAD_1_ligand
   70    74     1     0     0
SMALL
NO_CHARGES


@<TRIPOS>ATOM
     1 PA         -30.5470    54.0790   -24.2980 P.3          1 NAD403   0.0000
     2 O1A        -32.0190    54.3740   -24.1640 O.co2        1 NAD403   0.0000
     3 O2A        -30.3020    52.8540   -23.3970 O.co2        1 NAD403  -1.0000
     4 O5B        -29.8030    55.5010   -23.9180 O.3          1 NAD403   0.0000
     5 C5B        -30.2460    56.7350   -24.4920 C.3          1 NAD403   0.0000
     6 C4B        -29.6060    57.7880   -23.5710 C.3          1 NAD403   0.0000
     7 O4B        -29.6320    58.9830   -24.0770 O.3          1 NAD403   0.0000
     8 C3B        -30.5810    57.7430   -22.3570 C.3          1 NAD403   0.0000
     9 O3B        -30.0100    57.5270   -21.1590 O.3          1 NAD403   0.0000
    10 C2B        -31.2160    59.1030   -22.3440 C.3          1 NAD403   0.0000
    11 O2B        -31.2260    59.4320   -20.9000 O.3          1 NAD403   0.0000
    12 C1B        -30.3860    59.8950   -23.0430 C.3          1 NAD403   0.0000
    13 N9A        -31.0830    60.9650   -23.6940 N.pl3        1 NAD403   0.0000
    14 C8A        -32.3080    60.9440   -24.2840 C.2          1 NAD403   0.0000
    15 N7A        -32.5640    62.2300   -24.7810 N.2          1 NAD403   0.0000
    16 C5A        -31.4590    63.0270   -24.5150 C.ar         1 NAD403   0.0000
    17 C6A        -31.2070    64.3400   -24.8250 C.ar         1 NAD403   0.0000
    18 N6A        -31.9830    65.3300   -25.4360 N.pl3        1 NAD403   0.0000
    19 N1A        -30.0890    64.9060   -24.4230 N.ar         1 NAD403   0.0000
    20 C2A        -29.1620    64.1780   -23.7360 C.ar         1 NAD403   0.0000
    21 N3A        -29.4020    62.8660   -23.4310 N.ar         1 NAD403   0.0000
    22 C4A        -30.5640    62.2780   -23.8350 C.ar         1 NAD403   0.0000
    23 O3         -30.2170    53.8800   -25.8310 O.3          1 NAD403   0.0000
    24 PN         -29.0540    53.0180   -26.5580 P.3          1 NAD403   0.0000
    25 O1N        -29.4680    51.5550   -26.6050 O.co2        1 NAD403   0.0000
    26 O2N        -27.7020    53.0150   -25.8630 O.co2        1 NAD403  -1.0000
    27 O5D        -28.9100    53.6660   -28.0060 O.3          1 NAD403   0.0000
    28 C5D        -28.6250    55.0080   -28.1520 C.3          1 NAD403   0.0000
    29 C4D        -28.8480    55.4510   -29.5930 C.3          1 NAD403   0.0000
    30 O4D        -28.0460    54.8800   -30.4720 O.3          1 NAD403   0.0000
    31 C3D        -30.1910    55.0580   -30.0810 C.3          1 NAD403   0.0000
    32 O3D        -30.4700    56.2690   -30.5570 O.3          1 NAD403   0.0000
    33 C2D        -29.9480    53.8550   -31.0430 C.3          1 NAD403   0.0000
    34 O2D        -31.0780    53.6970   -31.9860 O.3          1 NAD403   0.0000
    35 C1D        -28.8000    54.1190   -31.6090 C.3          1 NAD403   0.0000
    36 N1N        -27.9580    52.9950   -31.9380 N.ar         1 NAD403   1.0000
    37 C2N        -27.2370    53.1090   -33.0670 C.ar         1 NAD403   0.0000
    38 C3N        -26.3920    52.0720   -33.4470 C.ar         1 NAD403   0.0000
    39 C7N        -25.6010    52.2920   -34.7170 C.2          1 NAD403   0.0000
    40 O7N        -25.1510    51.3700   -35.4080 O.2          1 NAD403   0.0000
    41 N7N        -25.3240    53.6280   -35.1470 N.am         1 NAD403   0.0000
    42 C4N        -26.2540    50.9490   -32.6720 C.ar         1 NAD403   0.0000
    43 C5N        -26.9790    50.8440   -31.5330 C.ar         1 NAD403   0.0000
    44 C6N        -27.8260    51.8820   -31.1580 C.ar         1 NAD403   0.0000
    45 H5B1       -31.2437    56.8018   -24.4768 H            1 NAD403   0.0000
    46 H5B2       -29.9197    56.8327   -25.4322 H            1 NAD403   0.0000
    47 H4B        -28.6789    57.5246   -23.3045 H            1 NAD403   0.0000
    48 H3B        -31.2832    57.0500   -22.5202 H            1 NAD403   0.0000
    49 H5         -29.3547    58.2572   -20.9655 H            1 NAD403   0.0000
    50 H2B        -32.1375    59.0903   -22.7321 H            1 NAD403   0.0000
    51 H7         -30.3777    59.9040   -20.6598 H            1 NAD403   0.0000
    52 H1B        -29.7145    60.2874   -22.4144 H            1 NAD403   0.0000
    53 H8A        -32.9168    60.1536   -24.3513 H            1 NAD403   0.0000
    54 H6A1       -31.6066    66.2461   -25.5740 H            1 NAD403   0.0000
    55 H6A2       -32.9143    65.1218   -25.7349 H            1 NAD403   0.0000
    56 H2A        -28.3030    64.6054   -23.4540 H            1 NAD403   0.0000
    57 H5D1       -27.6703    55.1701   -27.9025 H            1 NAD403   0.0000
    58 H5D2       -29.2216    55.5380   -27.5493 H            1 NAD403   0.0000
    59 H4D        -28.7514    56.4445   -29.6529 H            1 NAD403   0.0000
    60 H3D        -30.7989    54.8096   -29.3268 H            1 NAD403   0.0000
    61 H17        -31.4564    56.4264   -30.5104 H            1 NAD403   0.0000
    62 H2D        -29.8581    53.0193   -30.5013 H            1 NAD403   0.0000
    63 H19        -30.9030    54.2368   -32.8094 H            1 NAD403   0.0000
    64 H1D        -28.9268    54.7101   -32.4055 H            1 NAD403   0.0000
    65 H2N        -27.3078    53.9330   -33.6291 H            1 NAD403   0.0000
    66 H7N1       -24.8018    53.7853   -35.9852 H            1 NAD403   0.0000
    67 H7N2       -25.6525    54.4045   -34.6094 H            1 NAD403   0.0000
    68 H4N        -25.6274    50.2186   -32.9439 H            1 NAD403   0.0000
    69 H5N        -26.9059    50.0246   -30.9644 H            1 NAD403   0.0000
    70 H6N        -28.3450    51.8121   -30.3061 H            1 NAD403   0.0000
@<TRIPOS>BOND
     1    1    2      ar
     2    1    3      ar
     3    1    4       1
     4    1   23       1
     5    4    5       1
     6    5    6       1
     7    6    7       1
     8    6    8       1
     9    7   12       1
    10    8    9       1
    11    8   10       1
    12   10   11       1
    13   10   12       1
    14   12   13       1
    15   13   14       1
    16   13   22       1
    17   14   15       2
    18   15   16       1
    19   16   17      ar
    20   16   22      ar
    21   17   18       1
    22   17   19      ar
    23   19   20      ar
    24   20   21      ar
    25   21   22      ar
    26   23   24       1
    27   24   25      ar
    28   24   26      ar
    29   24   27       1
    30   27   28       1
    31   28   29       1
    32   29   30       1
    33   29   31       1
    34   30   35       1
    35   31   32       1
    36   31   33       1
    37   33   34       1
    38   33   35       1
    39   35   36       1
    40   36   37      ar
    41   36   44      ar
    42   37   38      ar
    43   38   39       1
    44   38   42      ar
    45   39   40       2
    46   39   41      am
    47   42   43      ar
    48   43   44      ar
    49   44   70       1
    50    5   45       1
    51    5   46       1
    52    6   47       1
    53    8   48       1
    54    9   49       1
    55   10   50       1
    56   11   51       1
    57   12   52       1
    58   14   53       1
    59   18   54       1
    60   18   55       1
    61   20   56       1
    62   43   69       1
    63   28   57       1
    64   28   58       1
    65   29   59       1
    66   31   60       1
    67   32   61       1
    68   33   62       1
    69   34   63       1
    70   35   64       1
    71   37   65       1
    72   41   66       1
    73   41   67       1
    74   42   68       1
@<TRIPOS>SUBSTRUCTURE
     1 NAD403      1 GROUP             4 B     NAD     0 **** NAD B 403
