@<TRIPOS>MOLECULE
2bb3_SAH_2_ligand
   46    48     1     0     0
SMALL
NO_CHARGES


@<TRIPOS>ATOM
     1 N           23.3790     9.5180    60.0400 N.4          1 SAH203   1.0000
     2 CA          23.2490     9.5180    61.4460 C.3          1 SAH203   0.0000
     3 CB          21.9160    10.1350    61.8450 C.3          1 SAH203   0.0000
     4 CG          21.6580    11.6300    61.8850 C.3          1 SAH203   0.0000
     5 SD          20.0530    12.1310    62.3890 S.3          1 SAH203   0.0000
     6 C           23.4910     8.1220    61.9440 C.2          1 SAH203   0.0000
     7 O           23.5470     7.3710    61.0560 O.co2        1 SAH203   0.0000
     8 OXT         23.5810     7.9970    63.1090 O.co2        1 SAH203  -1.0000
     9 C5'         20.6590    12.4350    64.0340 C.3          1 SAH203   0.0000
    10 C4'         20.0950    11.5050    65.0960 C.3          1 SAH203   0.0000
    11 O4'         20.6570    10.2480    65.1270 O.3          1 SAH203   0.0000
    12 C3'         20.0180    11.9850    66.5030 C.3          1 SAH203   0.0000
    13 O3'         18.9620    12.8170    66.6930 O.3          1 SAH203   0.0000
    14 C2'         19.8560    10.6850    67.2220 C.3          1 SAH203   0.0000
    15 O2'         18.5650    10.2610    67.3720 O.3          1 SAH203   0.0000
    16 C1'         20.5080     9.6830    66.3470 C.3          1 SAH203   0.0000
    17 N9          21.8200     9.4370    66.8140 N.pl3        1 SAH203   0.0000
    18 C8          22.8810     9.8150    66.1850 C.2          1 SAH203   0.0000
    19 N7          23.9290     9.4200    66.7990 N.2          1 SAH203   0.0000
    20 C5          23.5520     8.7610    67.8460 C.ar         1 SAH203   0.0000
    21 C6          24.2550     8.1160    68.8200 C.ar         1 SAH203   0.0000
    22 N6          25.5470     8.0880    68.8750 N.pl3        1 SAH203   0.0000
    23 N1          23.5740     7.5040    69.7680 N.ar         1 SAH203   0.0000
    24 C2          22.2450     7.5380    69.7670 C.ar         1 SAH203   0.0000
    25 N3          21.5930     8.1470    68.8070 N.ar         1 SAH203   0.0000
    26 C4          22.2240     8.7640    67.8660 C.ar         1 SAH203   0.0000
    27 H1          23.8146    10.3686    59.7455 H            1 SAH203   0.0000
    28 H2          23.9407     8.7405    59.7572 H            1 SAH203   0.0000
    29 HA          23.9733    10.0999    61.8158 H            1 SAH203   0.0000
    30 HB1         21.7270     9.8013    62.7685 H            1 SAH203   0.0000
    31 HB2         21.2410     9.7591    61.2101 H            1 SAH203   0.0000
    32 HG1         21.8147    11.9906    60.9655 H            1 SAH203   0.0000
    33 HG2         22.3165    12.0357    62.5189 H            1 SAH203   0.0000
    34 H5'1        20.4241    13.3741    64.2847 H            1 SAH203   0.0000
    35 H5'2        21.6536    12.3314    64.0245 H            1 SAH203   0.0000
    36 H4'         19.1444    11.3537    64.8249 H            1 SAH203   0.0000
    37 H3'         20.8717    12.4319    66.7704 H            1 SAH203   0.0000
    38 H12         18.9424    13.1183    67.6463 H            1 SAH203   0.0000
    39 H2'         20.3146    10.7205    68.1099 H            1 SAH203   0.0000
    40 H14         18.0492    10.9411    67.8930 H            1 SAH203   0.0000
    41 H1'         19.9738     8.8392    66.2963 H            1 SAH203   0.0000
    42 H16         22.8827    10.3432    65.3359 H            1 SAH203   0.0000
    43 H17         26.0054     7.5969    69.6158 H            1 SAH203   0.0000
    44 H18         26.0875     8.5574    68.1768 H            1 SAH203   0.0000
    45 H19         21.7378     7.0945    70.5060 H            1 SAH203   0.0000
    46 H20         22.4737     9.4449    59.6215 H            1 SAH203   0.0000
@<TRIPOS>BOND
     1    1    2       1
     2    2    3       1
     3    2    6       1
     4    3    4       1
     5    4    5       1
     6    5    9       1
     7    6    7      ar
     8    6    8      ar
     9    9   10       1
    10   10   11       1
    11   10   12       1
    12   11   16       1
    13   12   13       1
    14   12   14       1
    15   14   15       1
    16   14   16       1
    17   16   17       1
    18   17   18       1
    19   17   26       1
    20   18   19       2
    21   19   20       1
    22   20   21      ar
    23   20   26      ar
    24   21   22       1
    25   21   23      ar
    26   23   24      ar
    27   24   25      ar
    28   25   26      ar
    29    1   27       1
    30    1   28       1
    31    2   29       1
    32    3   30       1
    33    3   31       1
    34    4   32       1
    35    4   33       1
    36    1   46       1
    37    9   34       1
    38    9   35       1
    39   10   36       1
    40   12   37       1
    41   13   38       1
    42   14   39       1
    43   15   40       1
    44   16   41       1
    45   18   42       1
    46   22   43       1
    47   22   44       1
    48   24   45       1
@<TRIPOS>SUBSTRUCTURE
     1 SAH203      1 GROUP             4 B     SAH     0 **** SAH B 203
