@<TRIPOS>MOLECULE
3saz_043_1_ligand
   21    21     1     0     0
SMALL
NO_CHARGES


@<TRIPOS>ATOM
     1 O01         39.0530    79.6030    63.3480 O.co2        1 043801   0.0000
     2 C02         37.7770    79.5560    63.8870 C.2          1 043801   0.0000
     3 O03         37.6280    79.2350    65.0270 O.co2        1 043801  -1.0000
     4 C04         36.6520    79.4250    62.8800 C.2          1 043801   0.0000
     5 O05         36.6800    80.0830    61.8870 O.2          1 043801   0.0000
     6 C06         35.6950    78.2480    63.0560 C.2          1 043801   0.0000
     7 C07         35.1030    77.6860    62.0230 C.2          1 043801   0.0000
     8 O08         35.1400    78.2980    60.7730 O.3          1 043801   0.0000
     9 C09         34.2350    76.4460    62.2300 C.ar         1 043801   0.0000
    10 C10         34.6030    75.4660    63.1940 C.ar         1 043801   0.0000
    11 C11         33.8100    74.3180    63.3840 C.ar         1 043801   0.0000
    12 C12         32.6420    74.1590    62.6010 C.ar         1 043801   0.0000
    13 C13         32.2880    75.1390    61.6400 C.ar         1 043801   0.0000
    14 BR14        30.6870    74.9310    60.5700 Br           1 043801   0.0000
    15 C15         33.0750    76.2930    61.4460 C.ar         1 043801   0.0000
    16 H1          35.5143    77.8969    63.9747 H            1 043801   0.0000
    17 H2          34.6887    77.8669    59.9917 H            1 043801   0.0000
    18 H3          35.4307    75.5935    63.7404 H            1 043801   0.0000
    19 H4          34.0676    73.6276    64.0600 H            1 043801   0.0000
    20 H5          32.0643    73.3524    62.7261 H            1 043801   0.0000
    21 H6          32.8166    76.9836    60.7705 H            1 043801   0.0000
@<TRIPOS>BOND
     1    1    2      ar
     2    2    3      ar
     3    2    4       1
     4    4    5       2
     5    4    6       1
     6    6    7       2
     7    7    8       1
     8    7    9       1
     9    9   10      ar
    10    9   15      ar
    11   10   11      ar
    12   11   12      ar
    13   12   13      ar
    14   13   14       1
    15   13   15      ar
    16   15   21       1
    17    6   16       1
    18    8   17       1
    19   10   18       1
    20   11   19       1
    21   12   20       1
@<TRIPOS>SUBSTRUCTURE
     1 043801      1 GROUP             4 A     043     0 **** 043 A 801
