@<TRIPOS>MOLECULE
4id9_NAD_2_ligand
   70    74     1     0     0
SMALL
NO_CHARGES


@<TRIPOS>ATOM
     1 PA          43.2940    43.9940    49.0560 P.3          1 NAD402   0.0000
     2 O1A         43.1540    43.9880    47.5440 O.co2        1 NAD402   0.0000
     3 O2A         44.5890    44.7460    49.4550 O.co2        1 NAD402  -1.0000
     4 O5B         42.0820    44.7410    49.7050 O.3          1 NAD402   0.0000
     5 C5B         42.2050    45.2110    51.0100 C.3          1 NAD402   0.0000
     6 C4B         41.1690    46.2230    51.2390 C.3          1 NAD402   0.0000
     7 O4B         41.1610    46.5400    52.6690 O.3          1 NAD402   0.0000
     8 C3B         41.4440    47.4570    50.5020 C.3          1 NAD402   0.0000
     9 O3B         40.3500    47.7590    49.6630 O.3          1 NAD402   0.0000
    10 C2B         41.6030    48.4880    51.5010 C.3          1 NAD402   0.0000
    11 O2B         41.1050    49.7870    51.0920 O.3          1 NAD402   0.0000
    12 C1B         40.8960    47.9730    52.6570 C.3          1 NAD402   0.0000
    13 N9A         41.3290    48.6370    53.8480 N.pl3        1 NAD402   0.0000
    14 C8A         42.6060    48.9120    54.2490 C.2          1 NAD402   0.0000
    15 N7A         42.5690    49.5920    55.4120 N.2          1 NAD402   0.0000
    16 C5A         41.2690    49.7940    55.7760 C.ar         1 NAD402   0.0000
    17 C6A         40.6010    50.4130    56.8210 C.ar         1 NAD402   0.0000
    18 N6A         41.3260    51.0530    57.8640 N.pl3        1 NAD402   0.0000
    19 N1A         39.2360    50.4220    56.8660 N.ar         1 NAD402   0.0000
    20 C2A         38.4880    49.8340    55.9100 C.ar         1 NAD402   0.0000
    21 N3A         39.1110    49.2280    54.8820 N.ar         1 NAD402   0.0000
    22 C4A         40.4670    49.1910    54.7800 C.ar         1 NAD402   0.0000
    23 O3          43.3450    42.5720    49.6680 O.3          1 NAD402   0.0000
    24 PN          42.7880    41.2290    48.9710 P.3          1 NAD402   0.0000
    25 O1N         43.7510    40.7420    47.8640 O.co2        1 NAD402   0.0000
    26 O2N         41.4040    41.4280    48.3830 O.co2        1 NAD402  -1.0000
    27 O5D         42.6950    40.1340    50.1510 O.3          1 NAD402   0.0000
    28 C5D         41.6960    40.3120    51.1690 C.3          1 NAD402   0.0000
    29 C4D         42.1360    39.8140    52.4950 C.3          1 NAD402   0.0000
    30 O4D         42.8480    38.5360    52.3540 O.3          1 NAD402   0.0000
    31 C3D         43.0560    40.7220    53.1730 C.3          1 NAD402   0.0000
    32 O3D         42.8000    40.6200    54.5900 O.3          1 NAD402   0.0000
    33 C2D         44.3760    40.2370    52.8690 C.3          1 NAD402   0.0000
    34 O2D         45.2870    40.7070    53.8680 O.3          1 NAD402   0.0000
    35 C1D         44.2270    38.8030    52.8850 C.3          1 NAD402   0.0000
    36 N1N         45.0830    38.0680    52.0520 N.ar         1 NAD402   1.0000
    37 C2N         45.1540    38.3460    50.6940 C.ar         1 NAD402   0.0000
    38 C3N         45.9720    37.5860    49.8690 C.ar         1 NAD402   0.0000
    39 C7N         46.0770    37.9120    48.3840 C.2          1 NAD402   0.0000
    40 O7N         47.0380    37.4250    47.7450 O.2          1 NAD402   0.0000
    41 N7N         45.1040    38.7860    47.6590 N.am         1 NAD402   0.0000
    42 C4N         46.7040    36.5530    50.4050 C.ar         1 NAD402   0.0000
    43 C5N         46.6230    36.2590    51.7550 C.ar         1 NAD402   0.0000
    44 C6N         45.8030    37.0160    52.5670 C.ar         1 NAD402   0.0000
    45 H5B1        43.1091    45.6187    51.1380 H            1 NAD402   0.0000
    46 H5B2        42.0862    44.4549    51.6536 H            1 NAD402   0.0000
    47 H4B         40.2772    45.8601    50.9688 H            1 NAD402   0.0000
    48 H3B         42.2809    47.3619    49.9629 H            1 NAD402   0.0000
    49 H5          39.5272    47.8793    50.2184 H            1 NAD402   0.0000
    50 H2B         42.5735    48.5712    51.7271 H            1 NAD402   0.0000
    51 H7          40.1434    49.8725    51.3527 H            1 NAD402   0.0000
    52 H1B         39.9150    48.1241    52.5355 H            1 NAD402   0.0000
    53 H8A         43.4365    48.6502    53.7574 H            1 NAD402   0.0000
    54 H6A1        40.8359    51.4971    58.6140 H            1 NAD402   0.0000
    55 H6A2        42.3258    51.0589    57.8473 H            1 NAD402   0.0000
    56 H2A         37.4895    49.8480    55.9638 H            1 NAD402   0.0000
    57 H5D1        40.8712    39.8156    50.8983 H            1 NAD402   0.0000
    58 H5D2        41.4880    41.2871    51.2462 H            1 NAD402   0.0000
    59 H4D         41.3318    39.6755    53.0729 H            1 NAD402   0.0000
    60 H3D         42.9354    41.6615    52.8525 H            1 NAD402   0.0000
    61 H17         42.5279    41.5145    54.9448 H            1 NAD402   0.0000
    62 H2D         44.6616    40.5479    51.9625 H            1 NAD402   0.0000
    63 H19         46.0297    40.0466    53.9790 H            1 NAD402   0.0000
    64 H1D         44.2984    38.4665    53.8240 H            1 NAD402   0.0000
    65 H2N         44.6149    39.0952    50.3091 H            1 NAD402   0.0000
    66 H7N1        45.2239    38.9649    46.6825 H            1 NAD402   0.0000
    67 H7N2        44.3335    39.1916    48.1507 H            1 NAD402   0.0000
    68 H4N         47.3002    36.0093    49.8143 H            1 NAD402   0.0000
    69 H5N         47.1545    35.5040    52.1391 H            1 NAD402   0.0000
    70 H6N         45.7318    36.7970    53.5401 H            1 NAD402   0.0000
@<TRIPOS>BOND
     1    1    2      ar
     2    1    3      ar
     3    1    4       1
     4    1   23       1
     5    4    5       1
     6    5    6       1
     7    6    7       1
     8    6    8       1
     9    7   12       1
    10    8    9       1
    11    8   10       1
    12   10   11       1
    13   10   12       1
    14   12   13       1
    15   13   14       1
    16   13   22       1
    17   14   15       2
    18   15   16       1
    19   16   17      ar
    20   16   22      ar
    21   17   18       1
    22   17   19      ar
    23   19   20      ar
    24   20   21      ar
    25   21   22      ar
    26   23   24       1
    27   24   25      ar
    28   24   26      ar
    29   24   27       1
    30   27   28       1
    31   28   29       1
    32   29   30       1
    33   29   31       1
    34   30   35       1
    35   31   32       1
    36   31   33       1
    37   33   34       1
    38   33   35       1
    39   35   36       1
    40   36   37      ar
    41   36   44      ar
    42   37   38      ar
    43   38   39       1
    44   38   42      ar
    45   39   40       2
    46   39   41      am
    47   42   43      ar
    48   43   44      ar
    49   44   70       1
    50    5   45       1
    51    5   46       1
    52    6   47       1
    53    8   48       1
    54    9   49       1
    55   10   50       1
    56   11   51       1
    57   12   52       1
    58   14   53       1
    59   18   54       1
    60   18   55       1
    61   20   56       1
    62   43   69       1
    63   28   57       1
    64   28   58       1
    65   29   59       1
    66   31   60       1
    67   32   61       1
    68   33   62       1
    69   34   63       1
    70   35   64       1
    71   37   65       1
    72   41   66       1
    73   41   67       1
    74   42   68       1
@<TRIPOS>SUBSTRUCTURE
     1 NAD402      1 GROUP             4 B     NAD     0 **** NAD B 402
