@<TRIPOS>MOLECULE
5bw4_SAM_2_ligand
   50    52     1     0     0
SMALL
NO_CHARGES


@<TRIPOS>ATOM
     1 N          -13.1400   -16.4960    48.2060 N.4          1 SAM301   1.0000
     2 CA         -12.5700   -16.1160    49.4930 C.3          1 SAM301   0.0000
     3 C          -13.3820   -15.0840    50.2220 C.2          1 SAM301   0.0000
     4 O          -14.2350   -14.3630    49.6410 O.co2        1 SAM301   0.0000
     5 OXT        -13.1050   -15.0080    51.4220 O.co2        1 SAM301  -1.0000
     6 CB         -11.1750   -15.5300    49.3150 C.3          1 SAM301   0.0000
     7 CG         -10.1690   -16.3350    50.1300 C.3          1 SAM301   0.0000
     8 SD          -8.6170   -15.7420    50.0040 S.3          1 SAM301   1.0000
     9 CE          -8.7680   -14.0860    50.2900 C.3          1 SAM301   0.0000
    10 C5'         -7.8380   -16.1110    48.5440 C.3          1 SAM301   0.0000
    11 C4'         -7.3500   -17.5660    48.4080 C.3          1 SAM301   0.0000
    12 O4'         -6.9150   -17.8270    47.0850 O.3          1 SAM301   0.0000
    13 C3'         -6.1770   -18.0670    49.3020 C.3          1 SAM301   0.0000
    14 O3'         -6.7070   -18.9320    50.2970 O.3          1 SAM301   0.0000
    15 C2'         -5.2330   -18.8450    48.4180 C.3          1 SAM301   0.0000
    16 O2'         -4.7050   -20.1160    48.9230 O.3          1 SAM301   0.0000
    17 C1'         -6.1510   -19.0260    47.1960 C.3          1 SAM301   0.0000
    18 N9          -5.3210   -19.4070    45.9970 N.pl3        1 SAM301   0.0000
    19 C8          -4.1560   -18.8030    45.5880 C.2          1 SAM301   0.0000
    20 N7          -3.6650   -19.5040    44.5190 N.2          1 SAM301   0.0000
    21 C5          -4.5270   -20.5300    44.2350 C.ar         1 SAM301   0.0000
    22 C6          -4.6230   -21.5620    43.2490 C.ar         1 SAM301   0.0000
    23 N6          -3.6260   -21.5910    42.3400 N.pl3        1 SAM301   0.0000
    24 N1          -5.6650   -22.4390    43.2260 N.ar         1 SAM301   0.0000
    25 C2          -6.6100   -22.3420    44.1700 C.ar         1 SAM301   0.0000
    26 N3          -6.5950   -21.3850    45.1110 N.ar         1 SAM301   0.0000
    27 C4          -5.5990   -20.4650    45.1890 C.ar         1 SAM301   0.0000
    28 H1         -12.5561   -17.1824    47.7725 H            1 SAM301   0.0000
    29 H2         -14.0543   -16.8763    48.3456 H            1 SAM301   0.0000
    30 HA         -12.5026   -16.9327    50.0661 H            1 SAM301   0.0000
    31 HB1        -11.1715   -14.5802    49.6278 H            1 SAM301   0.0000
    32 HB2        -10.9217   -15.5635    48.3482 H            1 SAM301   0.0000
    33 HG1        -10.1775   -17.2806    49.8047 H            1 SAM301   0.0000
    34 HG2        -10.4436   -16.3107    51.0912 H            1 SAM301   0.0000
    35 HE1         -7.8680   -13.6541    50.2310 H            1 SAM301   0.0000
    36 HE2         -9.3763   -13.6837    49.6058 H            1 SAM301   0.0000
    37 HE3         -9.1492   -13.9388    51.2027 H            1 SAM301   0.0000
    38 H5'1        -7.0440   -15.5093    48.4567 H            1 SAM301   0.0000
    39 H5'2        -8.4780   -15.9287    47.7976 H            1 SAM301   0.0000
    40 H4'         -8.1342   -18.1605    48.5858 H            1 SAM301   0.0000
    41 H3'         -5.7041   -17.2942    49.7252 H            1 SAM301   0.0000
    42 H15         -7.1575   -19.7091    49.8575 H            1 SAM301   0.0000
    43 H2'         -4.4672   -18.2546    48.1632 H            1 SAM301   0.0000
    44 H17         -5.4627   -20.7420    49.1073 H            1 SAM301   0.0000
    45 H1'         -6.7806   -19.7785    47.3895 H            1 SAM301   0.0000
    46 H19         -3.7394   -17.9924    45.9996 H            1 SAM301   0.0000
    47 H20         -3.6259   -22.2849    41.6200 H            1 SAM301   0.0000
    48 H21         -2.8873   -20.9185    42.3864 H            1 SAM301   0.0000
    49 H22         -7.3556   -23.0083    44.1740 H            1 SAM301   0.0000
    50 H23        -13.2005   -15.6900    47.6172 H            1 SAM301   0.0000
@<TRIPOS>BOND
     1    1    2       1
     2    2    3       1
     3    2    6       1
     4    3    4      ar
     5    3    5      ar
     6    6    7       1
     7    7    8       1
     8    8    9       1
     9    8   10       1
    10   10   11       1
    11   11   12       1
    12   11   13       1
    13   12   17       1
    14   13   14       1
    15   13   15       1
    16   15   16       1
    17   15   17       1
    18   17   18       1
    19   18   19       1
    20   18   27       1
    21   19   20       2
    22   20   21       1
    23   21   22      ar
    24   21   27      ar
    25   22   23       1
    26   22   24      ar
    27   24   25      ar
    28   25   26      ar
    29   26   27      ar
    30    1   28       1
    31    1   29       1
    32    2   30       1
    33    1   50       1
    34    6   31       1
    35    6   32       1
    36    7   33       1
    37    7   34       1
    38    9   35       1
    39    9   36       1
    40    9   37       1
    41   10   38       1
    42   10   39       1
    43   11   40       1
    44   13   41       1
    45   14   42       1
    46   15   43       1
    47   16   44       1
    48   17   45       1
    49   19   46       1
    50   23   47       1
    51   23   48       1
    52   25   49       1
@<TRIPOS>SUBSTRUCTURE
     1 SAM301      1 GROUP             4 B     SAM     0 **** SAM B 301
