@<TRIPOS>MOLECULE
3v2u_ATP_2_ligand
   43    45     1     0     0
SMALL
NO_CHARGES


@<TRIPOS>ATOM
     1 PG         -24.9890    37.5660    19.5670 P.3          1 ATP523   0.0000
     2 O1G        -24.4730    37.4640    18.1750 O.co2        1 ATP523   0.0000
     3 O2G        -24.4510    38.8310    20.1710 O.co2        1 ATP523  -1.0000
     4 O3G        -26.5390    37.5440    19.5580 O.co2        1 ATP523  -1.0000
     5 PB         -23.1070    35.9440    20.7530 P.3          1 ATP523   0.0000
     6 O1B        -22.6900    36.2850    22.1770 O.co2        1 ATP523   0.0000
     7 O2B        -21.9710    36.4850    19.8260 O.co2        1 ATP523  -1.0000
     8 O3B        -24.5660    36.4310    20.4290 O.3          1 ATP523   0.0000
     9 PA         -23.5180    33.5540    19.4170 P.3          1 ATP523   0.0000
    10 O1A        -24.9380    33.0780    19.4830 O.co2        1 ATP523   0.0000
    11 O2A        -23.3590    34.3610    18.2120 O.co2        1 ATP523  -1.0000
    12 O3A        -23.1550    34.3800    20.7100 O.3          1 ATP523   0.0000
    13 O5'        -22.4730    32.3270    19.4010 O.3          1 ATP523   0.0000
    14 C5'        -22.3730    31.4090    20.4660 C.3          1 ATP523   0.0000
    15 C4'        -21.3230    30.4360    20.2800 C.3          1 ATP523   0.0000
    16 O4'        -20.1010    31.0090    20.5990 O.3          1 ATP523   0.0000
    17 C3'        -21.4580    29.2310    21.1710 C.3          1 ATP523   0.0000
    18 O3'        -22.2570    28.2910    20.5450 O.3          1 ATP523   0.0000
    19 C2'        -20.1200    28.7560    21.2470 C.3          1 ATP523   0.0000
    20 O2'        -19.7960    27.9630    20.1520 O.3          1 ATP523   0.0000
    21 C1'        -19.2870    29.9860    21.1840 C.3          1 ATP523   0.0000
    22 N9         -18.8250    30.3470    22.4970 N.pl3        1 ATP523   0.0000
    23 C8         -19.6050    30.6030    23.5510 C.2          1 ATP523   0.0000
    24 N7         -18.8270    30.8810    24.6050 N.2          1 ATP523   0.0000
    25 C5         -17.5380    30.7950    24.2120 C.ar         1 ATP523   0.0000
    26 C6         -16.3050    30.9720    24.8410 C.ar         1 ATP523   0.0000
    27 N6         -16.2960    31.3430    26.2490 N.pl3        1 ATP523   0.0000
    28 N1         -15.1480    30.8090    24.1610 N.ar         1 ATP523   0.0000
    29 C2         -15.1850    30.4790    22.8540 C.ar         1 ATP523   0.0000
    30 N3         -16.3490    30.2950    22.2140 N.ar         1 ATP523   0.0000
    31 C4         -17.5250    30.4480    22.8680 C.ar         1 ATP523   0.0000
    32 H5'1       -23.2438    30.9248    20.5513 H            1 ATP523   0.0000
    33 H5'2       -22.1903    31.9171    21.3077 H            1 ATP523   0.0000
    34 H4'        -21.3107    30.1412    19.3245 H            1 ATP523   0.0000
    35 H3'        -21.8142    29.4766    22.0725 H            1 ATP523   0.0000
    36 H5         -23.0607    28.1068    21.1108 H            1 ATP523   0.0000
    37 H2'        -19.9644    28.2631    22.1031 H            1 ATP523   0.0000
    38 H7         -20.0160    27.0088    20.3547 H            1 ATP523   0.0000
    39 H1'        -18.4977    29.8175    20.5936 H            1 ATP523   0.0000
    40 H9         -20.6049    30.5893    23.5526 H            1 ATP523   0.0000
    41 H10        -15.4269    31.4765    26.7254 H            1 ATP523   0.0000
    42 H11        -17.1589    31.4643    26.7396 H            1 ATP523   0.0000
    43 H12        -14.3272    30.3693    22.3519 H            1 ATP523   0.0000
@<TRIPOS>BOND
     1    1    2      ar
     2    1    3      ar
     3    1    4      ar
     4    1    8       1
     5    5    6      ar
     6    5    7      ar
     7    5    8       1
     8    5   12       1
     9    9   10      ar
    10    9   11      ar
    11    9   12       1
    12    9   13       1
    13   13   14       1
    14   14   15       1
    15   15   16       1
    16   15   17       1
    17   16   21       1
    18   17   18       1
    19   17   19       1
    20   19   20       1
    21   19   21       1
    22   21   22       1
    23   22   23       1
    24   22   31       1
    25   23   24       2
    26   24   25       1
    27   25   26      ar
    28   25   31      ar
    29   26   27       1
    30   26   28      ar
    31   28   29      ar
    32   29   30      ar
    33   30   31      ar
    34   29   43       1
    35   27   42       1
    36   27   41       1
    37   23   40       1
    38   14   32       1
    39   14   33       1
    40   15   34       1
    41   17   35       1
    42   18   36       1
    43   19   37       1
    44   20   38       1
    45   21   39       1
@<TRIPOS>SUBSTRUCTURE
     1 ATP523      1 GROUP             4 D     ATP     0 **** ATP D 523
