@<TRIPOS>MOLECULE
3kfm_KAI_1_ligand
   29    29     1     0     0
SMALL
NO_CHARGES


@<TRIPOS>ATOM
     1 N          -35.2530    48.7340   -44.5330 N.4          1 KAI258   1.0000
     2 CD         -35.9270    48.5610   -45.8210 C.3          1 KAI258   0.0000
     3 CD1        -36.3250    47.0580   -48.3340 C.2          1 KAI258   0.0000
     4 CD2        -34.2300    47.9740   -49.2810 C.3          1 KAI258   0.0000
     5 CA         -33.8430    48.8840   -44.7180 C.3          1 KAI258   0.0000
     6 CB         -33.6110    48.1870   -46.0420 C.3          1 KAI258   0.0000
     7 CB1        -33.4350    46.6840   -45.8570 C.3          1 KAI258   0.0000
     8 CG         -34.8690    48.5650   -46.8440 C.3          1 KAI258   0.0000
     9 CG1        -32.0060    46.2770   -45.8900 C.2          1 KAI258   0.0000
    10 CG2        -35.1660    47.7920   -48.1340 C.2          1 KAI258   0.0000
    11 C          -33.3900    50.3620   -44.7110 C.2          1 KAI258   0.0000
    12 O          -32.3370    50.6090   -45.1970 O.co2        1 KAI258   0.0000
    13 OD1        -31.7960    45.1670   -45.7320 O.co2        1 KAI258   0.0000
    14 OD2        -31.1550    47.0560   -46.0940 O.co2        1 KAI258  -1.0000
    15 OXT        -34.0940    51.1660   -44.2970 O.co2        1 KAI258  -1.0000
    16 H1         -35.4258    47.9318   -43.9614 H            1 KAI258   0.0000
    17 HD1        -36.5664    49.3130   -45.9811 H            1 KAI258   0.0000
    18 HD2        -36.4226    47.6926   -45.8387 H            1 KAI258   0.0000
    19 HD11       -36.9675    46.9227   -47.5798 H            1 KAI258   0.0000
    20 HD12       -36.5185    46.6639   -49.2325 H            1 KAI258   0.0000
    21 HD21       -33.4455    48.5204   -48.9876 H            1 KAI258   0.0000
    22 HD22       -33.9136    47.0800   -49.5981 H            1 KAI258   0.0000
    23 HD23       -34.7034    48.4437   -50.0262 H            1 KAI258   0.0000
    24 HA         -33.3612    48.3881   -43.9956 H            1 KAI258   0.0000
    25 HB         -32.8007    48.5690   -46.4864 H            1 KAI258   0.0000
    26 HB11       -33.9217    46.2102   -46.5909 H            1 KAI258   0.0000
    27 HB12       -33.8244    46.4205   -44.9744 H            1 KAI258   0.0000
    28 HG         -34.7486    49.5201   -47.1146 H            1 KAI258   0.0000
    29 H14        -35.6135    49.5496   -44.0805 H            1 KAI258   0.0000
@<TRIPOS>BOND
     1    1    2       1
     2    1    5       1
     3    2    8       1
     4    3   10       2
     5    4   10       1
     6    5    6       1
     7    5   11       1
     8    6    7       1
     9    6    8       1
    10    7    9       1
    11    8   10       1
    12    9   13      ar
    13    9   14      ar
    14   11   12      ar
    15   11   15      ar
    16    1   16       1
    17    2   17       1
    18    2   18       1
    19    3   19       1
    20    3   20       1
    21    4   21       1
    22    4   22       1
    23    4   23       1
    24    5   24       1
    25    6   25       1
    26    7   26       1
    27    7   27       1
    28    8   28       1
    29    1   29       1
@<TRIPOS>SUBSTRUCTURE
     1 KAI258      1 GROUP             4 A     KAI     0 **** KAI A 258
