@<TRIPOS>MOLECULE
2afw_AHN_1_ligand
   22    22     1     0     0
SMALL
NO_CHARGES


@<TRIPOS>ATOM
     1 C          -10.6340     3.7040    22.2280 C.2          1 AHN1501   0.0000
     2 O           -9.4450     3.2680    22.3360 O.2          1 AHN1501   0.0000
     3 CT         -10.9250     5.0500    21.5860 C.3          1 AHN1501   0.0000
     4 N          -11.7100     3.0280    22.6420 N.am         1 AHN1501   0.0000
     5 CA         -13.0590     3.5540    22.5200 C.3          1 AHN1501   0.0000
     6 CB         -13.9840     2.5390    21.8030 C.3          1 AHN1501   0.0000
     7 CG         -15.4400     2.8980    21.8790 C.2          1 AHN1501   0.0000
     8 CD2        -16.0610     4.0820    22.0860 C.2          1 AHN1501   0.0000
     9 ND1        -16.4430     1.9670    21.7190 N.pl3        1 AHN1501   0.0000
    10 CE1        -17.6210     2.5610    21.8050 C.2          1 AHN1501   0.0000
    11 NE2        -17.4180     3.8480    22.0270 N.2          1 AHN1501   0.0000
    12 HT1        -11.9110     5.2166    21.5933 H            1 AHN1501   0.0000
    13 HT2        -10.4612     5.7717    22.0999 H            1 AHN1501   0.0000
    14 HT3        -10.5943     5.0476    20.6423 H            1 AHN1501   0.0000
    15 H4         -11.5817     2.1249    23.0518 H            1 AHN1501   0.0000
    16 HA1        -13.0331     4.4031    21.9924 H            1 AHN1501   0.0000
    17 HA2        -13.4220     3.7398    23.4331 H            1 AHN1501   0.0000
    18 HB1        -13.8568     1.6416    22.2254 H            1 AHN1501   0.0000
    19 HB2        -13.7188     2.4946    20.8398 H            1 AHN1501   0.0000
    20 HD2        -15.6179     4.9631    22.2511 H            1 AHN1501   0.0000
    21 HE1        -18.5112     2.1140    21.7173 H            1 AHN1501   0.0000
    22 HD1        -16.3014     0.9897    21.5616 H            1 AHN1501   0.0000
@<TRIPOS>BOND
     1    1    2       2
     2    1    3       1
     3    1    4      am
     4    4    5       1
     5    5    6       1
     6    6    7       1
     7    7    8       2
     8    7    9       1
     9    8   11       1
    10    9   10       1
    11   10   11       2
    12    3   12       1
    13    3   13       1
    14    3   14       1
    15    4   15       1
    16    5   16       1
    17    5   17       1
    18    6   18       1
    19    6   19       1
    20    8   20       1
    21   10   21       1
    22    9   22       1
@<TRIPOS>SUBSTRUCTURE
     1 AHN1501     1 GROUP             4 A     AHN     0 **** AHN A1501
