@<TRIPOS>MOLECULE
1atl_0QI_1_ligand
   47    47     1     0     0
SMALL
NO_CHARGES


@<TRIPOS>ATOM
     1 C1           2.1320    23.7440     0.5680 C.2          1 0QI301   0.0000
     2 O1           1.3330    24.4110    -0.1070 O.2          1 0QI301   0.0000
     3 C2           2.2330    22.2130     0.4330 C.3          1 0QI301   0.0000
     4 CH           0.8610    21.5510     0.2790 C.3          1 0QI301   0.0000
     5 S           -0.1070    21.4440     1.8150 S.3          1 0QI301   0.0000
     6 C3           3.0820    21.8570    -0.7940 C.3          1 0QI301   0.0000
     7 C4           4.3910    22.6360    -1.0190 C.3          1 0QI301   0.0000
     8 CM           4.9790    22.2740    -2.3840 C.3          1 0QI301   0.0000
     9 C5           5.4060    22.3680     0.1000 C.3          1 0QI301   0.0000
    10 N            2.9960    24.2880     1.4160 N.am         1 0QI301   0.0000
    11 CA           3.0760    25.7180     1.6560 C.3          1 0QI301   0.0000
    12 C            4.2870    26.0300     2.5510 C.2          1 0QI301   0.0000
    13 O            4.7820    27.1690     2.5610 O.co2        1 0QI301   0.0000
    14 CB           1.7530    26.2330     2.2490 C.3          1 0QI301   0.0000
    15 CG           1.2290    25.4990     3.4710 C.ar         1 0QI301   0.0000
    16 CD1          1.8870    24.3840     3.9840 C.ar         1 0QI301   0.0000
    17 CD2          0.0860    25.9470     4.1280 C.ar         1 0QI301   0.0000
    18 CE1          1.4300    23.7410     5.1130 C.ar         1 0QI301   0.0000
    19 CE2         -0.3820    25.3120     5.2640 C.ar         1 0QI301   0.0000
    20 CZ           0.2960    24.2040     5.7530 C.ar         1 0QI301   0.0000
    21 OH          -0.1470    23.5450     6.8820 O.3          1 0QI301   0.0000
    22 OXT          4.7930    25.0850     3.1840 O.co2        1 0QI301  -1.0000
    23 C6           0.3660    23.3430     8.2010 C.3          1 0QI301   0.0000
    24 H1           2.6778    21.8462     1.2500 H            1 0QI301   0.0000
    25 HH1          0.9998    20.6231    -0.0671 H            1 0QI301   0.0000
    26 HH2          0.3330    22.0793    -0.3859 H            1 0QI301   0.0000
    27 H4          -0.9836    21.0013     1.6264 H            1 0QI301   0.0000
    28 H5           2.5099    21.9974    -1.6021 H            1 0QI301   0.0000
    29 H6           3.3214    20.8890    -0.7191 H            1 0QI301   0.0000
    30 H7           4.1772    23.6129    -1.0198 H            1 0QI301   0.0000
    31 HM1          5.8287    22.7818    -2.5262 H            1 0QI301   0.0000
    32 HM2          5.1679    21.2925    -2.4159 H            1 0QI301   0.0000
    33 HM3          4.3248    22.5110    -3.1022 H            1 0QI301   0.0000
    34 H11          6.2419    22.8877    -0.0767 H            1 0QI301   0.0000
    35 H12          5.0173    22.6500     0.9772 H            1 0QI301   0.0000
    36 H13          5.6203    21.3917     0.1288 H            1 0QI301   0.0000
    37 H14          3.6207    23.6854     1.9126 H            1 0QI301   0.0000
    38 HA           3.2173    26.1715     0.7760 H            1 0QI301   0.0000
    39 HB1          1.0555    26.1717     1.5351 H            1 0QI301   0.0000
    40 HB2          1.8862    27.1909     2.5035 H            1 0QI301   0.0000
    41 HD1          2.7070    24.0437     3.5238 H            1 0QI301   0.0000
    42 HD2         -0.4052    26.7420     3.7721 H            1 0QI301   0.0000
    43 HE1          1.9165    22.9427     5.4680 H            1 0QI301   0.0000
    44 HE2         -1.2012    25.6480     5.7287 H            1 0QI301   0.0000
    45 H22         -0.2804    22.7926     8.7294 H            1 0QI301   0.0000
    46 H23          1.2438    22.8668     8.1480 H            1 0QI301   0.0000
    47 H24          0.4935    24.2283     8.6483 H            1 0QI301   0.0000
@<TRIPOS>BOND
     1    1    2       2
     2    1    3       1
     3    1   10      am
     4    3    4       1
     5    3    6       1
     6    4    5       1
     7    6    7       1
     8    7    8       1
     9    7    9       1
    10   10   11       1
    11   11   12       1
    12   11   14       1
    13   12   13      ar
    14   12   22      ar
    15   14   15       1
    16   15   16      ar
    17   15   17      ar
    18   16   18      ar
    19   17   19      ar
    20   18   20      ar
    21   19   20      ar
    22   20   21       1
    23   21   23       1
    24    3   24       1
    25    4   25       1
    26    4   26       1
    27    5   27       1
    28    6   28       1
    29    6   29       1
    30    7   30       1
    31    8   31       1
    32    8   32       1
    33    8   33       1
    34    9   34       1
    35    9   35       1
    36    9   36       1
    37   10   37       1
    38   11   38       1
    39   23   47       1
    40   14   39       1
    41   14   40       1
    42   16   41       1
    43   17   42       1
    44   18   43       1
    45   19   44       1
    46   23   45       1
    47   23   46       1
@<TRIPOS>SUBSTRUCTURE
     1 0QI301      1 GROUP             4 A     0QI     0 **** 0QI A 301
