@<TRIPOS>MOLECULE
2h1h_AFH_1_ligand
   64    67     1     0     0
SMALL
NO_CHARGES


@<TRIPOS>ATOM
     1 N9          47.7970    11.7740     5.5690 N.pl3        1 AFH400   0.0000
     2 C8          48.7210    10.9760     4.9610 C.2          1 AFH400   0.0000
     3 N7          49.7900    10.8550     5.7270 N.2          1 AFH400   0.0000
     4 C5          49.5980    11.5490     6.8300 C.ar         1 AFH400   0.0000
     5 C6          50.3420    11.8310     8.0270 C.ar         1 AFH400   0.0000
     6 N6          51.5570    11.2960     8.1560 N.pl3        1 AFH400   0.0000
     7 N1          49.8010    12.6540     9.0520 N.ar         1 AFH400   0.0000
     8 C2          48.5450    13.2190     8.9380 C.ar         1 AFH400   0.0000
     9 N3          47.8210    12.9570     7.7830 N.ar         1 AFH400   0.0000
    10 C4          48.2890    12.1560     6.7330 C.ar         1 AFH400   0.0000
    11 C1D         46.4340    12.1870     5.0590 C.3          1 AFH400   0.0000
    12 C2D         46.5130    12.8580     3.6860 C.3          1 AFH400   0.0000
    13 O2'         46.9870    14.2050     3.6850 O.3          1 AFH400   0.0000
    14 C3D         45.1210    12.6620     3.1480 C.3          1 AFH400   0.0000
    15 C4D         44.7550    11.3490     3.7080 C.3          1 AFH400   0.0000
    16 O4D         45.5680    11.0810     4.8670 O.3          1 AFH400   0.0000
    17 O3D         44.1800    13.6530     3.5960 O.3          1 AFH400   0.0000
    18 C5D         44.8910    10.3490     2.5710 C.3          1 AFH400   0.0000
    19 O5D         43.7070    10.4480     1.6970 O.3          1 AFH400   0.0000
    20 PA          42.5920     9.3730     1.4840 P.3          1 AFH400   0.0000
    21 O1A         41.9250     9.5910     0.2590 O.co2        1 AFH400   0.0000
    22 O2A         41.5830     9.3630     2.5450 O.co2        1 AFH400  -1.0000
    23 O3A         43.4210     8.1020     1.3090 O.3          1 AFH400   0.0000
    24 PB          43.1770     6.6340     1.2420 P.3          1 AFH400   0.0000
    25 O1B         43.7470     6.0410    -0.0110 O.co2        1 AFH400   0.0000
    26 O2B         43.8140     6.0760     2.3990 O.co2        1 AFH400  -1.0000
    27 O3B         41.5710     6.5290     1.4250 O.3          1 AFH400   0.0000
    28 C1'         40.9510     5.5080     0.9640 C.3          1 AFH400   0.0000
    29 C2'         40.0030     4.8610     1.9840 C.3          1 AFH400   0.0000
    30 C3'         39.3080     3.6550     1.2980 C.3          1 AFH400   0.0000
    31 C4'         38.5180     4.2210     0.0970 C.3          1 AFH400   0.0000
    32 C5'         39.4790     4.9000    -0.9180 C.3          1 AFH400   0.0000
    33 C6'         38.7820     5.5320    -2.1710 C.3          1 AFH400   0.0000
    34 C7'         39.7250     6.2010    -3.2110 C.3          1 AFH400   0.0000
    35 F           40.7400     4.4320     3.1100 F            1 AFH400   0.0000
    36 O3'         38.4240     3.0200     2.2180 O.3          1 AFH400   0.0000
    37 O4'         37.8370     3.1970    -0.6050 O.3          1 AFH400   0.0000
    38 O5'         40.2560     5.9760    -0.2390 O.3          1 AFH400   0.0000
    39 O6'         37.8260     6.4980    -1.7190 O.3          1 AFH400   0.0000
    40 O7'         41.1230     6.1680    -2.9210 O.3          1 AFH400   0.0000
    41 H1          48.6058    10.5454     4.0658 H            1 AFH400   0.0000
    42 H2          52.0974    11.4750     8.9781 H            1 AFH400   0.0000
    43 H3          51.9275    10.7159     7.4306 H            1 AFH400   0.0000
    44 H4          48.1704    13.7970     9.6630 H            1 AFH400   0.0000
    45 H1D         46.0177    12.8208     5.7108 H            1 AFH400   0.0000
    46 H2D         47.1354    12.3174     3.1200 H            1 AFH400   0.0000
    47 H2'         46.3798    14.7725     4.2411 H            1 AFH400   0.0000
    48 H3D         45.1361    12.6226     2.1489 H            1 AFH400   0.0000
    49 H4D         43.7966    11.3799     3.9917 H            1 AFH400   0.0000
    50 H10         44.4859    14.5592     3.3040 H            1 AFH400   0.0000
    51 H5D1        44.9549     9.4237     2.9447 H            1 AFH400   0.0000
    52 H5D2        45.7152    10.5527     2.0426 H            1 AFH400   0.0000
    53 H1'         41.6293     4.8264     0.6895 H            1 AFH400   0.0000
    54 H14         39.3135     5.5267     2.2692 H            1 AFH400   0.0000
    55 H3'         39.9945     3.0021     0.9780 H            1 AFH400   0.0000
    56 H4'         37.8550     4.8938     0.4252 H            1 AFH400   0.0000
    57 H5'         40.1258     4.2088    -1.2405 H            1 AFH400   0.0000
    58 H6'         38.2807     4.8044    -2.6392 H            1 AFH400   0.0000
    59 H7'1        39.4547     7.1603    -3.2926 H            1 AFH400   0.0000
    60 H7'2        39.5860     5.7398    -4.0873 H            1 AFH400   0.0000
    61 H21         38.0735     3.6972     2.8650 H            1 AFH400   0.0000
    62 H22         37.0058     3.5709    -1.0164 H            1 AFH400   0.0000
    63 H23         36.9409     6.0528    -1.5832 H            1 AFH400   0.0000
    64 H7'         41.2580     6.1681    -1.9302 H            1 AFH400   0.0000
@<TRIPOS>BOND
     1    1    2       1
     2    1   10       1
     3    1   11       1
     4    2    3       2
     5    3    4       1
     6    4    5      ar
     7    4   10      ar
     8    5    6       1
     9    5    7      ar
    10    7    8      ar
    11    8    9      ar
    12    9   10      ar
    13   11   12       1
    14   11   16       1
    15   12   13       1
    16   12   14       1
    17   14   15       1
    18   14   17       1
    19   15   16       1
    20   15   18       1
    21   18   19       1
    22   19   20       1
    23   20   21      ar
    24   20   22      ar
    25   20   23       1
    26   23   24       1
    27   24   25      ar
    28   24   26      ar
    29   24   27       1
    30   27   28       1
    31   28   29       1
    32   28   38       1
    33   29   30       1
    34   29   35       1
    35   30   31       1
    36   30   36       1
    37   31   32       1
    38   31   37       1
    39   32   33       1
    40   32   38       1
    41   33   34       1
    42   33   39       1
    43   34   40       1
    44    2   41       1
    45    6   42       1
    46    6   43       1
    47    8   44       1
    48   11   45       1
    49   12   46       1
    50   13   47       1
    51   14   48       1
    52   15   49       1
    53   17   50       1
    54   18   51       1
    55   18   52       1
    56   40   64       1
    57   39   63       1
    58   28   53       1
    59   29   54       1
    60   30   55       1
    61   31   56       1
    62   32   57       1
    63   33   58       1
    64   34   59       1
    65   34   60       1
    66   36   61       1
    67   37   62       1
@<TRIPOS>SUBSTRUCTURE
     1 AFH400      1 GROUP             4 A     AFH     0 **** AFH A 400
