@<TRIPOS>MOLECULE
1efy_BZC_1_ligand
   33    35     1     0     0
SMALL
NO_CHARGES


@<TRIPOS>ATOM
     1 C1          40.6790    22.6620    21.8370 C.ar         1 BZC201   0.0000
     2 N2          39.9280    22.8690    20.7290 N.2          1 BZC201   0.0000
     3 C3          38.6530    22.4260    20.9470 C.2          1 BZC201   0.0000
     4 N4          38.6030    21.9240    22.2360 N.pl3        1 BZC201   0.0000
     5 C5          39.8310    22.0570    22.8020 C.ar         1 BZC201   0.0000
     6 C7          40.3600    21.7320    24.0480 C.ar         1 BZC201   0.0000
     7 C4          42.0330    22.9360    22.1260 C.ar         1 BZC201   0.0000
     8 C19         37.5710    22.5070    19.8910 C.ar         1 BZC201   0.0000
     9 C2          42.5490    22.5980    23.3900 C.ar         1 BZC201   0.0000
    10 C6          41.7080    22.0010    24.3360 C.ar         1 BZC201   0.0000
    11 C8          42.8860    23.5850    21.1520 C.2          1 BZC201   0.0000
    12 N1          42.4080    23.9600    19.9530 N.am         1 BZC201   0.0000
    13 O1          44.0640    23.8070    21.4100 O.2          1 BZC201   0.0000
    14 C11         37.9370    22.5990    18.5340 C.ar         1 BZC201   0.0000
    15 C12         36.2060    22.5290    20.2400 C.ar         1 BZC201   0.0000
    16 C13         36.9460    22.7190    17.5480 C.ar         1 BZC201   0.0000
    17 O2          37.2660    22.7800    16.1600 O.3          1 BZC201   0.0000
    18 C15         35.5880    22.7470    17.9180 C.ar         1 BZC201   0.0000
    19 C17         35.2060    22.6510    19.2600 C.ar         1 BZC201   0.0000
    20 C18         38.5440    22.3580    15.7040 C.3          1 BZC201   0.0000
    21 H1          39.7781    21.3055    24.7404 H            1 BZC201   0.0000
    22 H2          43.5068    22.7823    23.6104 H            1 BZC201   0.0000
    23 H3          42.0742    21.7611    25.2351 H            1 BZC201   0.0000
    24 H4          43.0107    24.4070    19.2920 H            1 BZC201   0.0000
    25 H5          41.4497    23.7919    19.7220 H            1 BZC201   0.0000
    26 H6          38.9023    22.5788    18.2735 H            1 BZC201   0.0000
    27 H7          35.9441    22.4565    21.2024 H            1 BZC201   0.0000
    28 H8          34.8864    22.8368    17.2111 H            1 BZC201   0.0000
    29 H9          34.2398    22.6688    19.5173 H            1 BZC201   0.0000
    30 H10         38.5968    22.4680    14.7115 H            1 BZC201   0.0000
    31 H11         39.2531    22.9129    16.1390 H            1 BZC201   0.0000
    32 H12         38.6815    21.3962    15.9406 H            1 BZC201   0.0000
    33 H13         37.7971    21.5291    22.6772 H            1 BZC201   0.0000
@<TRIPOS>BOND
     1    1    2       1
     2    1    5      ar
     3    1    7      ar
     4    2    3       2
     5    3    4       1
     6    3    8       1
     7    4    5       1
     8    5    6      ar
     9    6   10      ar
    10    7    9      ar
    11    7   11       1
    12    8   14      ar
    13    8   15      ar
    14    9   10      ar
    15   11   12      am
    16   11   13       2
    17   14   16      ar
    18   15   19      ar
    19   16   17       1
    20   16   18      ar
    21   17   20       1
    22   18   19      ar
    23   20   32       1
    24    6   21       1
    25    9   22       1
    26   10   23       1
    27   12   24       1
    28   12   25       1
    29   14   26       1
    30   15   27       1
    31   18   28       1
    32   19   29       1
    33   20   30       1
    34   20   31       1
    35    4   33       1
@<TRIPOS>SUBSTRUCTURE
     1 BZC201      1 GROUP             4 A     BZC     0 **** BZC A 201
