@<TRIPOS>MOLECULE
3gyu_DL7_1_ligand
   71    74     1     0     0
SMALL
NO_CHARGES


@<TRIPOS>ATOM
     1 O3          -9.1820   -32.5550     3.3840 O.co2        1 DL7200   0.0000
     2 C27         -8.2850   -33.0590     4.1140 C.2          1 DL7200   0.0000
     3 O2          -8.4780   -33.9900     4.9090 O.co2        1 DL7200  -1.0000
     4 C25         -6.9170   -32.4990     4.1330 C.3          1 DL7200   0.0000
     5 C26         -6.9910   -31.2080     4.9440 C.3          1 DL7200   0.0000
     6 C24         -6.4940   -32.2280     2.6980 C.3          1 DL7200   0.0000
     7 C23         -6.5250   -33.4980     1.8970 C.3          1 DL7200   0.0000
     8 C22         -6.1030   -33.3220     0.4380 C.3          1 DL7200   0.0000
     9 C20         -6.0940   -34.7620    -0.1250 C.3          1 DL7200   0.0000
    10 C21         -7.5360   -35.0000    -0.6130 C.3          1 DL7200   0.0000
    11 C17         -4.9480   -35.0640    -1.1450 C.3          1 DL7200   0.0000
    12 C16         -3.5390   -34.7790    -0.6150 C.3          1 DL7200   0.0000
    13 C15         -2.5510   -35.8050    -1.1700 C.3          1 DL7200   0.0000
    14 C14         -3.3990   -36.4740    -2.2710 C.3          1 DL7200   0.0000
    15 C8          -3.0020   -37.7900    -2.8660 C.2          1 DL7200   0.0000
    16 C7          -1.9080   -38.5010    -2.6760 C.2          1 DL7200   0.0000
    17 C6          -1.3340   -39.7880    -3.1610 C.3          1 DL7200   0.0000
    18 C13         -4.7970   -36.5220    -1.7020 C.3          1 DL7200   0.0000
    19 C18         -4.7700   -37.5900    -0.5690 C.3          1 DL7200   0.0000
    20 C12         -5.7240   -36.8640    -2.8650 C.3          1 DL7200   0.0000
    21 C11         -5.4090   -38.1960    -3.5450 C.3          1 DL7200   0.0000
    22 C9          -3.9320   -38.4050    -3.9110 C.3          1 DL7200   0.0000
    23 C10         -3.5980   -39.8670    -4.3960 C.3          1 DL7200   0.0000
    24 C1          -4.2050   -40.1210    -5.7800 C.3          1 DL7200   0.0000
    25 C19         -4.1590   -40.8810    -3.4130 C.3          1 DL7200   0.0000
    26 C5          -2.0660   -40.0390    -4.5340 C.3          1 DL7200   0.0000
    27 C4          -1.6210   -41.3530    -5.1290 C.3          1 DL7200   0.0000
    28 C3          -2.3280   -41.6860    -6.4000 C.2          1 DL7200   0.0000
    29 O1          -1.7380   -42.0990    -7.4130 O.2          1 DL7200   0.0000
    30 C2          -3.8120   -41.4330    -6.3980 C.3          1 DL7200   0.0000
    31 H1          -6.2853   -33.1431     4.5644 H            1 DL7200   0.0000
    32 H2          -6.0842   -30.7885     4.9863 H            1 DL7200   0.0000
    33 H3          -7.6307   -30.5759     4.5067 H            1 DL7200   0.0000
    34 H4          -7.3066   -31.4139     5.8703 H            1 DL7200   0.0000
    35 H5          -5.5654   -31.8569     2.6923 H            1 DL7200   0.0000
    36 H6          -7.1206   -31.5646     2.2890 H            1 DL7200   0.0000
    37 H7          -7.4579   -33.8578     1.9135 H            1 DL7200   0.0000
    38 H8          -5.9063   -34.1560     2.3263 H            1 DL7200   0.0000
    39 H9          -5.1932   -32.9113     0.3782 H            1 DL7200   0.0000
    40 H10         -6.7594   -32.7515    -0.0556 H            1 DL7200   0.0000
    41 H11         -5.9515   -35.3726     0.6540 H            1 DL7200   0.0000
    42 H12         -7.6108   -35.9211    -0.9952 H            1 DL7200   0.0000
    43 H13         -8.1680   -34.9059     0.1562 H            1 DL7200   0.0000
    44 H14         -7.7650   -34.3275    -1.3168 H            1 DL7200   0.0000
    45 H15         -5.0913   -34.4638    -1.9319 H            1 DL7200   0.0000
    46 H16         -3.5444   -34.8317     0.3836 H            1 DL7200   0.0000
    47 H17         -3.2581   -33.8622    -0.8989 H            1 DL7200   0.0000
    48 H18         -2.2745   -36.4633    -0.4698 H            1 DL7200   0.0000
    49 H19         -1.7390   -35.3628    -1.5510 H            1 DL7200   0.0000
    50 H20         -3.4305   -35.8242    -3.0304 H            1 DL7200   0.0000
    51 H21         -1.2934   -38.0527    -2.0269 H            1 DL7200   0.0000
    52 H22         -1.5251   -40.5279    -2.5159 H            1 DL7200   0.0000
    53 H23         -0.3461   -39.7087    -3.2942 H            1 DL7200   0.0000
    54 H24         -4.6728   -38.5003    -0.9713 H            1 DL7200   0.0000
    55 H25         -3.9974   -37.4104     0.0400 H            1 DL7200   0.0000
    56 H26         -5.6225   -37.5451    -0.0482 H            1 DL7200   0.0000
    57 H27         -5.6510   -36.1377    -3.5485 H            1 DL7200   0.0000
    58 H28         -6.6612   -36.9025    -2.5184 H            1 DL7200   0.0000
    59 H29         -5.9475   -38.2500    -4.3859 H            1 DL7200   0.0000
    60 H30         -5.6824   -38.9324    -2.9262 H            1 DL7200   0.0000
    61 H31         -3.7973   -37.8389    -4.7242 H            1 DL7200   0.0000
    62 H32         -3.9096   -39.3864    -6.3908 H            1 DL7200   0.0000
    63 H33         -5.2010   -40.1019    -5.6931 H            1 DL7200   0.0000
    64 H34         -3.9429   -41.8052    -3.7278 H            1 DL7200   0.0000
    65 H35         -3.7519   -40.7321    -2.5118 H            1 DL7200   0.0000
    66 H36         -5.1513   -40.7729    -3.3525 H            1 DL7200   0.0000
    67 H37         -1.7539   -39.3230    -5.1585 H            1 DL7200   0.0000
    68 H38         -1.7987   -42.0798    -4.4655 H            1 DL7200   0.0000
    69 H39         -0.6395   -41.3031    -5.3138 H            1 DL7200   0.0000
    70 H40         -4.1346   -41.4444    -7.3445 H            1 DL7200   0.0000
    71 H41         -4.2560   -42.1680    -5.8855 H            1 DL7200   0.0000
@<TRIPOS>BOND
     1    1    2      ar
     2    2    3      ar
     3    2    4       1
     4    4    5       1
     5    4    6       1
     6    6    7       1
     7    7    8       1
     8    8    9       1
     9    9   10       1
    10    9   11       1
    11   11   12       1
    12   11   18       1
    13   12   13       1
    14   13   14       1
    15   14   15       1
    16   14   18       1
    17   15   16       2
    18   15   22       1
    19   16   17       1
    20   17   26       1
    21   18   19       1
    22   18   20       1
    23   20   21       1
    24   21   22       1
    25   22   23       1
    26   23   24       1
    27   23   25       1
    28   23   26       1
    29   24   30       1
    30   26   27       1
    31   27   28       1
    32   28   29       2
    33   28   30       1
    34   30   71       1
    35    4   31       1
    36    5   32       1
    37    5   33       1
    38    5   34       1
    39    6   35       1
    40    6   36       1
    41    7   37       1
    42    7   38       1
    43    8   39       1
    44    8   40       1
    45    9   41       1
    46   10   42       1
    47   10   43       1
    48   10   44       1
    49   11   45       1
    50   12   46       1
    51   12   47       1
    52   13   48       1
    53   13   49       1
    54   14   50       1
    55   16   51       1
    56   17   52       1
    57   17   53       1
    58   19   54       1
    59   19   55       1
    60   19   56       1
    61   20   57       1
    62   20   58       1
    63   21   59       1
    64   21   60       1
    65   22   61       1
    66   24   62       1
    67   24   63       1
    68   25   64       1
    69   25   65       1
    70   25   66       1
    71   26   67       1
    72   27   68       1
    73   27   69       1
    74   30   70       1
@<TRIPOS>SUBSTRUCTURE
     1 DL7200      1 GROUP             4 A     DL7     0 **** DL7 A 200
