@<TRIPOS>MOLECULE
./coach420/1gwm/ligand.pdb
 67 69 0 0 0
SMALL
GASTEIGER

@<TRIPOS>ATOM
      1 CO         35.1210  -16.2070   -7.5440 Co.oh 1154  CO1154      0.0000
      2  C2        26.6230    9.3010   32.4840 C.3   1155  GLC1155     0.0000
      3  C3        27.0380    9.8300   31.1160 C.3   1155  GLC1155     0.0000
      4  C4        27.4220    8.6830   30.2190 C.3   1155  GLC1155     0.0000
      5  C5        26.2730    7.7340   30.0740 C.3   1155  GLC1155     0.0000
      6  C6        26.5920    6.6530   29.0400 C.3   1155  GLC1155     0.0000
      7  O1        24.3810    8.7960   31.8180 O.3   1155  GLC1155     0.0000
      8  O2        26.1600   10.3900   33.2630 O.3   1155  GLC1155     0.0000
      9  O3        28.1260   10.7160   31.2430 O.3   1155  GLC1155     0.0000
     10  O5        26.0790    7.2640   31.3880 O.3   1155  GLC1155     0.0000
     11  O6        27.6620    5.9810   29.6430 O.3   1155  GLC1155     0.0000
     12  O4        27.5820    9.2020   28.9190 O.3   1155  GLC1155     0.0000
     13  C2        28.8520    8.3410   26.7660 C.3   1156  BGC1156     0.0000
     14  C3        30.2720    8.6080   26.1850 C.3   1156  BGC1156     0.0000
     15  C4        30.9030    9.9510   26.6530 C.3   1156  BGC1156     0.0000
     16  C5        30.8230   10.0220   28.1910 C.3   1156  BGC1156     0.0000
     17  C6        31.4820   11.2670   28.7540 C.3   1156  BGC1156     0.0000
     18  C1        28.7930    8.7350   28.2850 C.3   1156  BGC1156     0.0000
     19  O2        28.4730    6.9810   26.4700 O.3   1156  BGC1156     0.0000
     20  O3        30.1980    8.4700   24.7750 O.3   1156  BGC1156     0.0000
     21  O4        32.3120   10.1200   26.3310 O.3   1156  BGC1156     0.0000
     22  O5        29.4900    9.9080   28.6670 O.3   1156  BGC1156     0.0000
     23  O6        30.8340   12.4240   28.2820 O.3   1156  BGC1156     0.0000
     24  C2        34.2070   11.2960   25.5310 C.3   1157  BGC1157     0.0000
     25  C3        34.7790   12.1240   24.3900 C.3   1157  BGC1157     0.0000
     26  C4        34.3730   11.5690   23.0180 C.3   1157  BGC1157     0.0000
     27  C5        32.8650   11.3790   22.9880 C.3   1157  BGC1157     0.0000
     28  C6        32.3490   10.7630   21.6870 C.3   1157  BGC1157     0.0000
     29  C1        32.7230   11.0820   25.3300 C.3   1157  BGC1157     0.0000
     30  O2        34.4700   11.9180   26.7840 O.3   1157  BGC1157     0.0000
     31  O3        36.1750   12.1850   24.5460 O.3   1157  BGC1157     0.0000
     32  O4        34.7150   12.4820   21.9890 O.3   1157  BGC1157     0.0000
     33  O5        32.5120   10.5260   24.0560 O.3   1157  BGC1157     0.0000
     34  O6        33.0490    9.5980   21.3190 O.3   1157  BGC1157     0.0000
     35  C2        35.8640   12.9020   19.9160 C.3   1158  BGC1158     0.0000
     36  C3        37.1290   12.4950   19.1540 C.3   1158  BGC1158     0.0000
     37  C4        38.3790   12.6990   20.0110 C.3   1158  BGC1158     0.0000
     38  C5        38.1890   11.9760   21.3400 C.3   1158  BGC1158     0.0000
     39  C6        39.3480   12.1370   22.3080 C.3   1158  BGC1158     0.0000
     40  C1        35.8480   12.1310   21.2200 C.3   1158  BGC1158     0.0000
     41  O2        34.6970   12.6820   19.1500 O.3   1158  BGC1158     0.0000
     42  O3        37.2880   13.2690   17.9950 O.3   1158  BGC1158     0.0000
     43  O4        39.5000   12.1270   19.3370 O.3   1158  BGC1158     0.0000
     44  O5        37.0090   12.4350   21.9630 O.3   1158  BGC1158     0.0000
     45  O6        39.5750   13.5070   22.5550 O.3   1158  BGC1158     0.0000
     46  C2        41.8160   11.9900   18.9560 C.3   1159  BGC1159     0.0000
     47  C3        43.0800   12.7870   18.7010 C.3   1159  BGC1159     0.0000
     48  C4        42.8260   13.8790   17.6680 C.3   1159  BGC1159     0.0000
     49  C5        41.6380   14.7320   18.0810 C.3   1159  BGC1159     0.0000
     50  C6        41.2550   15.7620   17.0230 C.3   1159  BGC1159     0.0000
     51  C1        40.6780   12.9220   19.2840 C.3   1159  BGC1159     0.0000
     52  O2        42.0560   11.0800   20.0010 O.3   1159  BGC1159     0.0000
     53  O3        44.0780   11.8600   18.2680 O.3   1159  BGC1159     0.0000
     54  O4        43.9530   14.7590   17.5840 O.3   1159  BGC1159     0.0000
     55  O5        40.5040   13.8830   18.2580 O.3   1159  BGC1159     0.0000
     56  O6        40.3330   16.6920   17.5320 O.3   1159  BGC1159     0.0000
     57  C2        45.6340   15.7960   16.2250 C.3   1160  BGC1160     0.0000
     58  C3        46.6750   15.5710   15.1310 C.3   1160  BGC1160     0.0000
     59  C4        47.4500   14.2800   15.3600 C.3   1160  BGC1160     0.0000
     60  C5        46.4840   13.1300   15.6340 C.3   1160  BGC1160     0.0000
     61  C6        47.2220   11.8350   15.9170 C.3   1160  BGC1160     0.0000
     62  C1        44.7830   14.5510   16.4430 C.3   1160  BGC1160     0.0000
     63  O2        44.7970   16.8950   15.9120 O.3   1160  BGC1160     0.0000
     64  O3        47.5840   16.6700   15.0920 O.3   1160  BGC1160     0.0000
     65  O4        48.2700   14.0090   14.2270 O.3   1160  BGC1160     0.0000
     66  O5        45.6310   13.4610   16.7210 O.3   1160  BGC1160     0.0000
     67  O6        47.7640   11.8710   17.2050 O.3   1160  BGC1160     0.0000
@<TRIPOS>BOND
     1     2     3    1
     2     2     8    1
     3     3     4    1
     4     3     9    1
     5     4    12    1
     6     4     5    1
     7     5     6    1
     8     5    10    1
     9     6    11    1
    10    12    18    1
    11    13    14    1
    12    13    19    1
    13    13    18    1
    14    14    20    1
    15    14    15    1
    16    15    21    1
    17    15    16    1
    18    16    22    1
    19    16    17    1
    20    17    23    1
    21    18    22    1
    22    21    29    1
    23    24    25    1
    24    24    29    1
    25    24    30    1
    26    25    26    1
    27    25    31    1
    28    26    32    1
    29    26    27    1
    30    27    28    1
    31    27    33    1
    32    28    34    1
    33    29    33    1
    34    32    40    1
    35    35    41    1
    36    35    36    1
    37    35    40    1
    38    36    42    1
    39    36    37    1
    40    37    43    1
    41    37    38    1
    42    38    44    1
    43    38    39    1
    44    39    45    1
    45    40    44    1
    46    43    51    1
    47    46    47    1
    48    46    51    1
    49    46    52    1
    50    47    48    1
    51    47    53    1
    52    48    54    1
    53    48    49    1
    54    49    50    1
    55    49    55    1
    56    50    56    1
    57    51    55    1
    58    54    62    1
    59    57    58    1
    60    57    63    1
    61    57    62    1
    62    58    64    1
    63    58    59    1
    64    59    65    1
    65    59    60    1
    66    60    61    1
    67    60    66    1
    68    61    67    1
    69    62    66    1
