@<TRIPOS>MOLECULE
4jxh_HRC_1_ligand
   34    35     1     0     0
SMALL
NO_CHARGES


@<TRIPOS>ATOM
     1 O1          27.5990     6.5220    55.9830 O.2          1 HRC301   0.0000
     2 S           28.0670     7.6680    55.2360 S.o2         1 HRC301   0.0000
     3 O2          29.4160     7.4310    54.8050 O.2          1 HRC301   0.0000
     4 C9          27.0880     7.8240    53.9600 C.ar         1 HRC301   0.0000
     5 C14         27.5460     8.2400    52.7080 C.ar         1 HRC301   0.0000
     6 C13         26.6600     8.3780    51.6410 C.ar         1 HRC301   0.0000
     7 C12         25.3060     8.1030    51.8010 C.ar         1 HRC301   0.0000
     8 C11         24.8380     7.6850    53.0400 C.ar         1 HRC301   0.0000
     9 C10         25.7280     7.5400    54.0980 C.ar         1 HRC301   0.0000
    10 N           27.8910     8.9690    56.2140 N.pl3        1 HRC301   0.0000
    11 C1          28.5580    10.1030    55.8610 C.ar         1 HRC301   0.0000
    12 C6          29.9410    10.2250    56.0330 C.ar         1 HRC301   0.0000
    13 C7          30.6810     9.2820    56.8990 C.3          1 HRC301   0.0000
    14 C2          27.9420    11.0090    54.9950 C.ar         1 HRC301   0.0000
    15 C8          26.4950    10.9300    54.7150 C.3          1 HRC301   0.0000
    16 C3          28.6490    12.0560    54.4040 C.ar         1 HRC301   0.0000
    17 C4          30.0150    12.1920    54.6190 C.ar         1 HRC301   0.0000
    18 O3          30.7010    13.2140    54.0320 O.3          1 HRC301   0.0000
    19 C5          30.6580    11.2730    55.4430 C.ar         1 HRC301   0.0000
    20 H1          28.5168     8.4403    52.5761 H            1 HRC301   0.0000
    21 H2          27.0016     8.6781    50.7504 H            1 HRC301   0.0000
    22 H3          24.6757     8.2053    51.0315 H            1 HRC301   0.0000
    23 H4          23.8660     7.4894    53.1703 H            1 HRC301   0.0000
    24 H5          25.3847     7.2236    54.9823 H            1 HRC301   0.0000
    25 H6          27.3195     8.9328    57.0338 H            1 HRC301   0.0000
    26 H7          31.6516     9.5226    56.9008 H            1 HRC301   0.0000
    27 H8          30.3229     9.3344    57.8312 H            1 HRC301   0.0000
    28 H9          30.5689     8.3514    56.5506 H            1 HRC301   0.0000
    29 H10         26.2388    11.6562    54.0771 H            1 HRC301   0.0000
    30 H11         26.2818    10.0406    54.3106 H            1 HRC301   0.0000
    31 H12         25.9840    11.0396    55.5676 H            1 HRC301   0.0000
    32 H13         28.1698    12.7129    53.8219 H            1 HRC301   0.0000
    33 H14         30.2210    13.8668    53.4459 H            1 HRC301   0.0000
    34 H15         31.6391    11.3618    55.6149 H            1 HRC301   0.0000
@<TRIPOS>BOND
     1    1    2       2
     2    2    3       2
     3    2    4       1
     4    2   10       1
     5    4    5      ar
     6    4    9      ar
     7    5    6      ar
     8    6    7      ar
     9    7    8      ar
    10    8    9      ar
    11   10   11       1
    12   11   12      ar
    13   11   14      ar
    14   12   13       1
    15   12   19      ar
    16   14   15       1
    17   14   16      ar
    18   16   17      ar
    19   17   18       1
    20   17   19      ar
    21    5   20       1
    22    6   21       1
    23    7   22       1
    24    8   23       1
    25    9   24       1
    26   10   25       1
    27   13   26       1
    28   13   27       1
    29   13   28       1
    30   15   29       1
    31   15   30       1
    32   15   31       1
    33   16   32       1
    34   18   33       1
    35   19   34       1
@<TRIPOS>SUBSTRUCTURE
     1 HRC301      1 GROUP             4 A     HRC     0 **** HRC A 301
