@<TRIPOS>MOLECULE
2nr4_FMN_1_ligand
   50    52     1     0     0
SMALL
NO_CHARGES


@<TRIPOS>ATOM
     1 N1          42.4330    45.7550    22.3030 N.2          1 FMN401   0.0000
     2 C2          41.8020    46.1800    23.4530 C.2          1 FMN401   0.0000
     3 O2          41.4240    47.3470    23.5170 O.2          1 FMN401   0.0000
     4 N3          41.6330    45.3200    24.5170 N.pl3        1 FMN401   0.0000
     5 C4          42.0760    44.0090    24.4310 C.2          1 FMN401   0.0000
     6 O4          41.7460    43.1790    25.2690 O.2          1 FMN401   0.0000
     7 C4A         42.7040    43.5700    23.2680 C.2          1 FMN401   0.0000
     8 N5          43.1640    42.2670    23.1610 N.2          1 FMN401   0.0000
     9 C5A         43.7730    41.8220    21.9960 C.ar         1 FMN401   0.0000
    10 C6          44.2150    40.4960    21.9000 C.ar         1 FMN401   0.0000
    11 C7          44.8230    40.0400    20.7390 C.ar         1 FMN401   0.0000
    12 C7M         45.3450    38.6310    20.7050 C.3          1 FMN401   0.0000
    13 C8          45.0080    40.9370    19.6650 C.ar         1 FMN401   0.0000
    14 C8M         45.5020    40.4720    18.3470 C.3          1 FMN401   0.0000
    15 C9          44.5750    42.2670    19.7540 C.ar         1 FMN401   0.0000
    16 C9A         43.9400    42.7070    20.9300 C.ar         1 FMN401   0.0000
    17 N10         43.4920    44.0240    21.0460 N.pl3        1 FMN401   0.0000
    18 C10         42.8810    44.4550    22.2050 C.2          1 FMN401   0.0000
    19 C1'         43.8090    45.0240    19.9750 C.3          1 FMN401   0.0000
    20 C2'         42.5860    45.1720    19.0780 C.3          1 FMN401   0.0000
    21 O2'         42.1630    43.9060    18.6470 O.3          1 FMN401   0.0000
    22 C3'         42.9890    45.9650    17.8570 C.3          1 FMN401   0.0000
    23 O3'         43.3990    47.2550    18.2770 O.3          1 FMN401   0.0000
    24 C4'         41.8550    46.0270    16.8360 C.3          1 FMN401   0.0000
    25 O4'         42.4420    46.5300    15.6620 O.3          1 FMN401   0.0000
    26 C5'         40.7050    46.9330    17.2960 C.3          1 FMN401   0.0000
    27 O5'         39.8610    47.2490    16.2080 O.3          1 FMN401   0.0000
    28 P           38.4670    48.0740    16.3190 P.3          1 FMN401   0.0000
    29 O1P         38.8470    49.5430    16.0660 O.co2        1 FMN401   0.0000
    30 O2P         37.9260    47.9480    17.7620 O.co2        1 FMN401  -1.0000
    31 O3P         37.5510    47.5750    15.1990 O.co2        1 FMN401  -1.0000
    32 H1          41.1896    45.6426    25.3533 H            1 FMN401   0.0000
    33 H2          44.0915    39.8741    22.6733 H            1 FMN401   0.0000
    34 H7M1        45.7527    38.4480    19.8104 H            1 FMN401   0.0000
    35 H7M2        46.0376    38.5148    21.4169 H            1 FMN401   0.0000
    36 H7M3        44.5921    37.9926    20.8651 H            1 FMN401   0.0000
    37 H8M1        45.5661    41.2498    17.7217 H            1 FMN401   0.0000
    38 H8M2        46.4053    40.0573    18.4570 H            1 FMN401   0.0000
    39 H8M3        44.8678    39.7952    17.9732 H            1 FMN401   0.0000
    40 H9          44.7158    42.8965    18.9899 H            1 FMN401   0.0000
    41 H1'1        44.5875    44.7048    19.4346 H            1 FMN401   0.0000
    42 H1'2        44.0312    45.9057    20.3912 H            1 FMN401   0.0000
    43 H2'         41.8489    45.6374    19.5680 H            1 FMN401   0.0000
    44 H13         41.5010    43.5360    19.2988 H            1 FMN401   0.0000
    45 H3'         43.7709    45.5100    17.4309 H            1 FMN401   0.0000
    46 H15         43.6698    47.7947    17.4799 H            1 FMN401   0.0000
    47 H4'         41.5068    45.1049    16.6669 H            1 FMN401   0.0000
    48 H17         42.3385    45.8621    14.9250 H            1 FMN401   0.0000
    49 H5'1        41.0826    47.7774    17.6760 H            1 FMN401   0.0000
    50 H5'2        40.1736    46.4597    17.9985 H            1 FMN401   0.0000
@<TRIPOS>BOND
     1    1    2       1
     2    1   18       2
     3    2    3       2
     4    2    4       1
     5    4    5       1
     6    5    6       2
     7    5    7       1
     8    7    8       2
     9    7   18       1
    10    8    9       1
    11    9   10      ar
    12    9   16      ar
    13   10   11      ar
    14   11   12       1
    15   11   13      ar
    16   13   14       1
    17   13   15      ar
    18   15   16      ar
    19   16   17       1
    20   17   18       1
    21   17   19       1
    22   19   20       1
    23   20   21       1
    24   20   22       1
    25   22   23       1
    26   22   24       1
    27   24   25       1
    28   24   26       1
    29   26   27       1
    30   27   28       1
    31   28   29      ar
    32   28   30      ar
    33   28   31      ar
    34    4   32       1
    35   10   33       1
    36   12   34       1
    37   12   35       1
    38   12   36       1
    39   14   37       1
    40   14   38       1
    41   14   39       1
    42   15   40       1
    43   19   41       1
    44   19   42       1
    45   20   43       1
    46   21   44       1
    47   22   45       1
    48   23   46       1
    49   24   47       1
    50   25   48       1
    51   26   49       1
    52   26   50       1
@<TRIPOS>SUBSTRUCTURE
     1 FMN401      1 GROUP             4 A     FMN     0 **** FMN A 401
