@<TRIPOS>MOLECULE
1yw1_FMN_1_ligand
   50    52     1     0     0
SMALL
NO_CHARGES


@<TRIPOS>ATOM
     1 N1         -11.0440    63.6410    16.0990 N.2          1 FMN2606   0.0000
     2 C2         -11.8700    64.4040    15.2930 C.2          1 FMN2606   0.0000
     3 O2         -13.0640    64.1490    15.1180 O.2          1 FMN2606   0.0000
     4 N3         -11.3600    65.5020    14.6450 N.pl3        1 FMN2606   0.0000
     5 C4         -10.0370    65.8340    14.7950 C.2          1 FMN2606   0.0000
     6 O4          -9.5140    66.7490    14.1660 O.2          1 FMN2606   0.0000
     7 C4A         -9.2030    65.0750    15.5930 C.2          1 FMN2606   0.0000
     8 N5          -7.8780    65.4500    15.7100 N.2          1 FMN2606   0.0000
     9 C5A         -7.0130    64.7230    16.5180 C.ar         1 FMN2606   0.0000
    10 C6          -5.6640    65.1100    16.6360 C.ar         1 FMN2606   0.0000
    11 C7          -4.7320    64.4270    17.4290 C.ar         1 FMN2606   0.0000
    12 C7M         -3.3540    65.0700    17.4650 C.3          1 FMN2606   0.0000
    13 C8          -5.2320    63.2970    18.1220 C.ar         1 FMN2606   0.0000
    14 C8M         -4.4730    62.5640    19.1840 C.3          1 FMN2606   0.0000
    15 C9          -6.5700    62.8910    18.0120 C.ar         1 FMN2606   0.0000
    16 C9A         -7.4750    63.6020    17.2120 C.ar         1 FMN2606   0.0000
    17 N10         -8.8020    63.2540    17.0570 N.pl3        1 FMN2606   0.0000
    18 C10         -9.6990    63.9650    16.2640 C.2          1 FMN2606   0.0000
    19 C1'         -9.3360    62.2370    18.0030 C.3          1 FMN2606   0.0000
    20 C2'         -9.3330    60.8220    17.4310 C.3          1 FMN2606   0.0000
    21 O2'        -10.4980    60.7780    16.6000 O.3          1 FMN2606   0.0000
    22 C3'         -9.1390    59.8990    18.6680 C.3          1 FMN2606   0.0000
    23 O3'         -7.8650    60.1450    19.2660 O.3          1 FMN2606   0.0000
    24 C4'         -9.2880    58.3660    18.5550 C.3          1 FMN2606   0.0000
    25 O4'         -8.4450    57.8360    17.5480 O.3          1 FMN2606   0.0000
    26 C5'        -10.7050    57.8030    18.3840 C.3          1 FMN2606   0.0000
    27 O5'        -10.8450    56.9710    17.2440 O.3          1 FMN2606   0.0000
    28 P          -10.7590    55.3620    17.2910 P.3          1 FMN2606   0.0000
    29 O1P        -11.0870    54.7700    15.9540 O.co2        1 FMN2606   0.0000
    30 O2P         -9.3440    54.9030    17.5100 O.co2        1 FMN2606  -1.0000
    31 O3P        -11.8290    54.8850    18.2450 O.co2        1 FMN2606  -1.0000
    32 H1         -11.9527    66.0596    14.0638 H            1 FMN2606   0.0000
    33 H2          -5.3552    65.9138    16.1276 H            1 FMN2606   0.0000
    34 H7M1        -2.7484    64.5281    18.0477 H            1 FMN2606   0.0000
    35 H7M2        -2.9794    65.1075    16.5386 H            1 FMN2606   0.0000
    36 H7M3        -3.4283    65.9971    17.8323 H            1 FMN2606   0.0000
    37 H8M1        -5.0271    61.8051    19.5261 H            1 FMN2606   0.0000
    38 H8M2        -3.6212    62.2081    18.7995 H            1 FMN2606   0.0000
    39 H8M3        -4.2637    63.1892    19.9358 H            1 FMN2606   0.0000
    40 H9          -6.8827    62.0830    18.5113 H            1 FMN2606   0.0000
    41 H1'1       -10.2767    62.4833    18.2364 H            1 FMN2606   0.0000
    42 H1'2        -8.7740    62.2465    18.8301 H            1 FMN2606   0.0000
    43 H2'         -8.5293    60.7266    16.8437 H            1 FMN2606   0.0000
    44 H13        -10.6824    61.6909    16.2358 H            1 FMN2606   0.0000
    45 H3'         -9.8193    60.1926    19.3396 H            1 FMN2606   0.0000
    46 H15         -7.7485    59.5480    20.0598 H            1 FMN2606   0.0000
    47 H4'         -8.9487    57.9941    19.4190 H            1 FMN2606   0.0000
    48 H17         -7.5592    57.5976    17.9462 H            1 FMN2606   0.0000
    49 H5'1       -11.3424    58.5687    18.2982 H            1 FMN2606   0.0000
    50 H5'2       -10.9342    57.2681    19.1972 H            1 FMN2606   0.0000
@<TRIPOS>BOND
     1    1    2       1
     2    1   18       2
     3    2    3       2
     4    2    4       1
     5    4    5       1
     6    5    6       2
     7    5    7       1
     8    7    8       2
     9    7   18       1
    10    8    9       1
    11    9   10      ar
    12    9   16      ar
    13   10   11      ar
    14   11   12       1
    15   11   13      ar
    16   13   14       1
    17   13   15      ar
    18   15   16      ar
    19   16   17       1
    20   17   18       1
    21   17   19       1
    22   19   20       1
    23   20   21       1
    24   20   22       1
    25   22   23       1
    26   22   24       1
    27   24   25       1
    28   24   26       1
    29   26   27       1
    30   27   28       1
    31   28   29      ar
    32   28   30      ar
    33   28   31      ar
    34    4   32       1
    35   10   33       1
    36   12   34       1
    37   12   35       1
    38   12   36       1
    39   14   37       1
    40   14   38       1
    41   14   39       1
    42   15   40       1
    43   19   41       1
    44   19   42       1
    45   20   43       1
    46   21   44       1
    47   22   45       1
    48   23   46       1
    49   24   47       1
    50   25   48       1
    51   26   49       1
    52   26   50       1
@<TRIPOS>SUBSTRUCTURE
     1 FMN2606     1 GROUP             4 A     FMN     0 **** FMN A2606
