@<TRIPOS>MOLECULE
3law_GNP_3_ligand
   45    47     1     0     0
SMALL
NO_CHARGES


@<TRIPOS>ATOM
     1 PG          12.0810    29.7480    15.7730 P.3          1 GNP1400   0.0000
     2 O1G         13.1320    28.6770    15.9040 O.co2        1 GNP1400   0.0000
     3 O2G         11.0120    29.4320    14.7330 O.co2        1 GNP1400  -1.0000
     4 O3G         12.9040    31.0020    15.5300 O.co2        1 GNP1400  -1.0000
     5 N3B         11.3350    29.9510    17.2010 N.3          1 GNP1400   0.0000
     6 PB          10.2260    31.0850    17.5080 P.3          1 GNP1400   0.0000
     7 O1B         10.8830    32.3630    17.8430 O.co2        1 GNP1400   0.0000
     8 O2B          9.2300    31.0330    16.3940 O.co2        1 GNP1400  -1.0000
     9 O3A          9.4560    30.7040    18.7790 O.3          1 GNP1400   0.0000
    10 PA           8.1190    29.9340    18.7260 P.3          1 GNP1400   0.0000
    11 O1A          7.0380    30.9040    18.3990 O.co2        1 GNP1400   0.0000
    12 O2A          8.2920    28.7660    17.8120 O.co2        1 GNP1400  -1.0000
    13 O5'          7.7920    29.3940    20.1640 O.3          1 GNP1400   0.0000
    14 C5'          8.7180    28.5380    20.8570 C.3          1 GNP1400   0.0000
    15 C4'          8.0530    27.8840    22.0670 C.3          1 GNP1400   0.0000
    16 O4'          7.5790    28.8820    23.0340 O.3          1 GNP1400   0.0000
    17 C3'          6.8170    27.0730    21.7310 C.3          1 GNP1400   0.0000
    18 O3'          6.7360    26.0270    22.6410 O.3          1 GNP1400   0.0000
    19 C2'          5.6850    28.0650    21.9500 C.3          1 GNP1400   0.0000
    20 O2'          4.4700    27.4000    22.1570 O.3          1 GNP1400   0.0000
    21 C1'          6.1700    28.7670    23.2080 C.3          1 GNP1400   0.0000
    22 N9           5.6910    30.1280    23.4010 N.pl3        1 GNP1400   0.0000
    23 C8           5.8740    31.1680    22.5200 C.2          1 GNP1400   0.0000
    24 N7           5.3680    32.2900    22.9210 N.2          1 GNP1400   0.0000
    25 C5           4.8320    31.9910    24.1570 C.2          1 GNP1400   0.0000
    26 C6           4.1610    32.8360    25.0600 C.2          1 GNP1400   0.0000
    27 O6           3.9250    34.0380    24.9140 O.2          1 GNP1400   0.0000
    28 N1           3.7400    32.1640    26.2110 N.pl3        1 GNP1400   0.0000
    29 C2           3.9530    30.8220    26.4740 C.2          1 GNP1400   0.0000
    30 N2           3.4840    30.3580    27.6540 N.pl3        1 GNP1400   0.0000
    31 N3           4.6020    30.0170    25.6210 N.2          1 GNP1400   0.0000
    32 C4           5.0140    30.6640    24.4840 C.2          1 GNP1400   0.0000
    33 H3B         10.8865    29.0785    17.3951 H            1 GNP1400   0.0000
    34 H5'1         9.4983    29.0816    21.1660 H            1 GNP1400   0.0000
    35 H5'2         9.0353    27.8246    20.2321 H            1 GNP1400   0.0000
    36 H4'          8.7175    27.2880    22.5177 H            1 GNP1400   0.0000
    37 H3'          6.8390    26.7407    20.7881 H            1 GNP1400   0.0000
    38 H6           5.9270    25.4739    22.4420 H            1 GNP1400   0.0000
    39 H2'          5.6171    28.7059    21.1854 H            1 GNP1400   0.0000
    40 H8           4.0145    27.2568    21.2784 H            1 GNP1400   0.0000
    41 H1'          5.9658    28.2115    24.0140 H            1 GNP1400   0.0000
    42 H10          6.3543    31.0667    21.6488 H            1 GNP1400   0.0000
    43 H11          3.2456    32.6951    26.8991 H            1 GNP1400   0.0000
    44 H12          3.6088    29.3964    27.8983 H            1 GNP1400   0.0000
    45 H13          3.0123    30.9764    28.2825 H            1 GNP1400   0.0000
@<TRIPOS>BOND
     1    1    2      ar
     2    1    3      ar
     3    1    4      ar
     4    1    5       1
     5    5    6       1
     6    6    7      ar
     7    6    8      ar
     8    6    9       1
     9    9   10       1
    10   10   11      ar
    11   10   12      ar
    12   10   13       1
    13   13   14       1
    14   14   15       1
    15   15   16       1
    16   15   17       1
    17   16   21       1
    18   17   18       1
    19   17   19       1
    20   19   20       1
    21   19   21       1
    22   21   22       1
    23   22   23       1
    24   22   32       1
    25   23   24       2
    26   24   25       1
    27   25   26       1
    28   25   32       2
    29   26   27       2
    30   26   28       1
    31   28   29       1
    32   29   30       1
    33   29   31       2
    34   31   32       1
    35   30   45       1
    36   30   44       1
    37    5   33       1
    38   28   43       1
    39   23   42       1
    40   14   34       1
    41   14   35       1
    42   15   36       1
    43   17   37       1
    44   18   38       1
    45   19   39       1
    46   20   40       1
    47   21   41       1
@<TRIPOS>SUBSTRUCTURE
     1 GNP1400     1 GROUP             4 C     GNP     0 **** GNP C1400
