@<TRIPOS>MOLECULE
3ik7_BOB_4_ligand
   65    64     1     0     0
SMALL
NO_CHARGES


@<TRIPOS>ATOM
     1 C1          27.0040    50.2560    47.2970 C.2          1 BOB504   0.0000
     2 N1          27.7560    51.9200    48.8460 N.4          1 BOB504   1.0000
     3 C2          32.8660    51.4650    42.5070 C.2          1 BOB504   0.0000
     4 N2          31.4840    50.5310    44.2130 N.am         1 BOB504   0.0000
     5 O2          31.9340    51.3290    41.5610 O.2          1 BOB504   0.0000
     6 C3          34.8440    54.4560    41.7080 C.2          1 BOB504   0.0000
     7 N3          33.8200    52.3750    42.3700 N.am         1 BOB504   0.0000
     8 O11         26.9230    49.3830    48.1880 O.co2        1 BOB504   0.0000
     9 O12         26.3440    50.1670    46.2530 O.co2        1 BOB504  -1.0000
    10 O31         35.6360    54.9560    40.8710 O.co2        1 BOB504   0.0000
    11 O32         34.7320    54.8630    42.8940 O.co2        1 BOB504  -1.0000
    12 C40         33.9010    46.9050    45.6910 C.3          1 BOB504   0.0000
    13 C42         35.1360    47.3990    46.4950 C.3          1 BOB504   0.0000
    14 C43         35.9690    48.5780    45.9600 C.3          1 BOB504   0.0000
    15 C44         37.1810    48.1580    45.1160 C.3          1 BOB504   0.0000
    16 C45         38.2640    47.4290    45.9290 C.3          1 BOB504   0.0000
    17 C46         39.6070    48.1580    45.9830 C.3          1 BOB504   0.0000
    18 C47         40.2370    48.3100    44.6130 C.3          1 BOB504   0.0000
    19 C54         34.2860    45.7390    44.7650 C.3          1 BOB504   0.0000
    20 C55         34.1000    44.4130    45.5100 C.3          1 BOB504   0.0000
    21 O56         34.4240    43.2960    44.6770 O.3          1 BOB504   0.0000
    22 O60         34.6800    47.7460    47.8140 O.3          1 BOB504   0.0000
    23 CA1         27.8730    51.4710    47.4690 C.3          1 BOB504   0.0000
    24 CA2         32.8730    50.6110    43.7460 C.3          1 BOB504   0.0000
    25 CA3         33.9730    53.3070    41.2600 C.3          1 BOB504   0.0000
    26 CB1         29.3510    51.2320    47.1590 C.3          1 BOB504   0.0000
    27 CB2         33.4190    49.1880    43.5040 C.3          1 BOB504   0.0000
    28 CD1         31.1210    50.7880    45.4590 C.2          1 BOB504   0.0000
    29 OE1         32.0600    51.1110    46.3450 O.2          1 BOB504   0.0000
    30 CG1         29.6340    50.6620    45.7840 C.3          1 BOB504   0.0000
    31 SG2         32.9010    48.1030    44.8110 S.3          1 BOB504   0.0000
    32 H1          28.4538    51.4705    49.4036 H            1 BOB504   0.0000
    33 H2          27.8850    52.9109    48.8856 H            1 BOB504   0.0000
    34 H3          30.7765    50.2691    43.5566 H            1 BOB504   0.0000
    35 H4          34.5016    52.4272    43.0999 H            1 BOB504   0.0000
    36 H5          33.2888    46.5051    46.3731 H            1 BOB504   0.0000
    37 H6          35.7556    46.6201    46.5924 H            1 BOB504   0.0000
    38 H7          36.2988    49.1091    46.7405 H            1 BOB504   0.0000
    39 H8          35.3756    49.1504    45.3942 H            1 BOB504   0.0000
    40 H9          37.5858    48.9781    44.7114 H            1 BOB504   0.0000
    41 H10         36.8656    47.5484    44.3887 H            1 BOB504   0.0000
    42 H11         38.4121    46.5296    45.5178 H            1 BOB504   0.0000
    43 H12         37.9306    47.3168    46.8651 H            1 BOB504   0.0000
    44 H13         40.2308    47.6392    46.5676 H            1 BOB504   0.0000
    45 H14         39.4633    49.0675    46.3732 H            1 BOB504   0.0000
    46 H15         41.1097    48.7906    44.6989 H            1 BOB504   0.0000
    47 H16         40.3922    47.4057    44.2153 H            1 BOB504   0.0000
    48 H17         39.6248    48.8340    44.0208 H            1 BOB504   0.0000
    49 H18         35.2422    45.8347    44.4883 H            1 BOB504   0.0000
    50 H19         33.7014    45.7505    43.9537 H            1 BOB504   0.0000
    51 H20         33.1469    44.3351    45.8024 H            1 BOB504   0.0000
    52 H21         34.6966    44.4043    46.3125 H            1 BOB504   0.0000
    53 H22         35.1258    43.5647    44.0173 H            1 BOB504   0.0000
    54 H23         35.1564    47.1838    48.4900 H            1 BOB504   0.0000
    55 HA1         27.5335    52.1941    46.8675 H            1 BOB504   0.0000
    56 HA2         33.4278    51.0584    44.4475 H            1 BOB504   0.0000
    57 HA31        34.4025    52.8411    40.4864 H            1 BOB504   0.0000
    58 HA32        33.0758    53.6524    40.9848 H            1 BOB504   0.0000
    59 HB11        29.7112    50.5937    47.8393 H            1 BOB504   0.0000
    60 HB12        29.8294    52.1067    47.2365 H            1 BOB504   0.0000
    61 HB21        34.4182    49.2178    43.4757 H            1 BOB504   0.0000
    62 HB22        33.0709    48.8444    42.6318 H            1 BOB504   0.0000
    63 HG11        29.1027    51.1645    45.1020 H            1 BOB504   0.0000
    64 HG12        29.3721    49.6971    45.7657 H            1 BOB504   0.0000
    65 H34         26.8487    51.6877    49.1964 H            1 BOB504   0.0000
@<TRIPOS>BOND
     1    1    8      ar
     2    1    9      ar
     3    1   23       1
     4    2   23       1
     5    3    5       2
     6    3    7      am
     7    3   24       1
     8    4   24       1
     9    4   28      am
    10    6   10      ar
    11    6   11      ar
    12    6   25       1
    13    7   25       1
    14   12   13       1
    15   12   19       1
    16   12   31       1
    17   13   14       1
    18   13   22       1
    19   14   15       1
    20   15   16       1
    21   16   17       1
    22   17   18       1
    23   19   20       1
    24   20   21       1
    25   23   26       1
    26   24   27       1
    27   26   30       1
    28   27   31       1
    29   28   29       2
    30   28   30       1
    31    2   32       1
    32    2   33       1
    33    4   34       1
    34    7   35       1
    35    2   65       1
    36   30   64       1
    37   12   36       1
    38   13   37       1
    39   14   38       1
    40   14   39       1
    41   15   40       1
    42   15   41       1
    43   16   42       1
    44   16   43       1
    45   17   44       1
    46   17   45       1
    47   18   46       1
    48   18   47       1
    49   18   48       1
    50   19   49       1
    51   19   50       1
    52   20   51       1
    53   20   52       1
    54   21   53       1
    55   22   54       1
    56   23   55       1
    57   24   56       1
    58   25   57       1
    59   25   58       1
    60   26   59       1
    61   26   60       1
    62   27   61       1
    63   27   62       1
    64   30   63       1
@<TRIPOS>SUBSTRUCTURE
     1 BOB504      1 GROUP             4 D     BOB     0 **** BOB D 504
