@<TRIPOS>MOLECULE
3qw4_U5P_2_ligand
   32    33     1     0     0
SMALL
NO_CHARGES


@<TRIPOS>ATOM
     1 N1           0.1750   -16.9290    30.9690 N.pl3        1 U5P7485   0.0000
     2 C2           0.5990   -18.1720    31.5210 C.2          1 U5P7485   0.0000
     3 N3          -0.0540   -19.3520    31.1600 N.pl3        1 U5P7485   0.0000
     4 C4          -1.1180   -19.3160    30.2620 C.2          1 U5P7485   0.0000
     5 C5          -1.5430   -18.1140    29.7180 C.2          1 U5P7485   0.0000
     6 C6          -0.9030   -16.9290    30.0690 C.2          1 U5P7485   0.0000
     7 O2           1.5320   -18.2630    32.3160 O.2          1 U5P7485   0.0000
     8 O4          -1.6850   -20.3550    29.9530 O.2          1 U5P7485   0.0000
     9 C1'          0.8220   -15.6140    31.2780 C.3          1 U5P7485   0.0000
    10 C2'          2.3540   -15.7410    31.1200 C.3          1 U5P7485   0.0000
    11 O2'          3.0080   -15.5290    32.3790 O.3          1 U5P7485   0.0000
    12 C3'          2.7780   -14.6790    30.1070 C.3          1 U5P7485   0.0000
    13 C4'          1.5260   -13.8460    29.9010 C.3          1 U5P7485   0.0000
    14 O3'          3.8420   -13.8670    30.6310 O.3          1 U5P7485   0.0000
    15 O4'          0.4010   -14.7000    30.2390 O.3          1 U5P7485   0.0000
    16 C5'          1.6680   -13.6490    28.4130 C.3          1 U5P7485   0.0000
    17 O5'          0.5330   -13.0340    27.8310 O.3          1 U5P7485   0.0000
    18 P            0.6480   -12.5540    26.3070 P.3          1 U5P7485   0.0000
    19 O1P          2.0370   -12.4170    25.8080 O.co2        1 U5P7485   0.0000
    20 O2P         -0.1570   -13.6020    25.4040 O.co2        1 U5P7485  -1.0000
    21 O3P         -0.1980   -11.1990    26.2320 O.co2        1 U5P7485  -1.0000
    22 H1           0.2429   -20.2250    31.5470 H            1 U5P7485   0.0000
    23 H2          -2.3082   -18.0983    29.0744 H            1 U5P7485   0.0000
    24 H3          -1.2154   -16.0648    29.6745 H            1 U5P7485   0.0000
    25 H1'          0.5700   -15.2822    32.1871 H            1 U5P7485   0.0000
    26 H2'          2.5823   -16.6498    30.7707 H            1 U5P7485   0.0000
    27 H6           3.5288   -16.3462    32.6258 H            1 U5P7485   0.0000
    28 H3'          3.0570   -15.1079    29.2478 H            1 U5P7485   0.0000
    29 H4'          1.5361   -12.9876    30.4140 H            1 U5P7485   0.0000
    30 H9           4.4176   -13.5459    29.8790 H            1 U5P7485   0.0000
    31 H5'1         1.8030   -14.5420    27.9838 H            1 U5P7485   0.0000
    32 H5'2         2.4670   -13.0726    28.2417 H            1 U5P7485   0.0000
@<TRIPOS>BOND
     1    1    2       1
     2    1    6       1
     3    1    9       1
     4    2    3       1
     5    2    7       2
     6    3    4       1
     7    4    5       1
     8    4    8       2
     9    5    6       2
    10    9   10       1
    11    9   15       1
    12   10   11       1
    13   10   12       1
    14   12   13       1
    15   12   14       1
    16   13   15       1
    17   13   16       1
    18   16   17       1
    19   17   18       1
    20   18   19      ar
    21   18   20      ar
    22   18   21      ar
    23    3   22       1
    24    5   23       1
    25    6   24       1
    26    9   25       1
    27   10   26       1
    28   11   27       1
    29   12   28       1
    30   13   29       1
    31   14   30       1
    32   16   31       1
    33   16   32       1
@<TRIPOS>SUBSTRUCTURE
     1 U5P7485     1 GROUP             4 C     U5P     0 **** U5P C7485
