@<TRIPOS>MOLECULE
3vq4_0NX_2_ligand
   22    23     1     0     0
SMALL
NO_CHARGES


@<TRIPOS>ATOM
     1 O13         37.3600    28.3160     7.5820 O.3          1 0NX305   0.0000
     2 C12         35.9860    28.5590     7.4160 C.3          1 0NX305   0.0000
     3 C9          35.4850    29.0440     8.7520 C.2          1 0NX305   0.0000
     4 C8          36.1940    29.6400     9.8070 C.2          1 0NX305   0.0000
     5 N10         34.2180    28.8740     9.0900 N.2          1 0NX305   0.0000
     6 O11         34.1060    29.4110    10.3850 O.2          1 0NX305   0.0000
     7 C7          35.2980    29.8880    10.8290 C.2          1 0NX305   0.0000
     8 C3          35.4990    30.5420    12.1410 C.ar         1 0NX305   0.0000
     9 C2          34.3860    31.1160    12.7500 C.ar         1 0NX305   0.0000
    10 C4          36.7490    30.6000    12.7430 C.ar         1 0NX305   0.0000
    11 C5          36.8580    31.2490    13.9670 C.ar         1 0NX305   0.0000
    12 C6          35.7550    31.8340    14.5630 C.ar         1 0NX305   0.0000
    13 C1          34.5080    31.7700    13.9680 C.ar         1 0NX305   0.0000
    14 H1          37.7473    27.9895     6.7198 H            1 0NX305   0.0000
    15 H2          35.5138    27.7178     7.1525 H            1 0NX305   0.0000
    16 H3          35.8389    29.2573     6.7155 H            1 0NX305   0.0000
    17 H4          37.1721    29.8478     9.8170 H            1 0NX305   0.0000
    18 H5          33.4918    31.0565    12.3062 H            1 0NX305   0.0000
    19 H6          37.5486    30.1862    12.3078 H            1 0NX305   0.0000
    20 H7          37.7466    31.2938    14.4236 H            1 0NX305   0.0000
    21 H8          35.8608    32.3098    15.4362 H            1 0NX305   0.0000
    22 H9          33.7112    32.1861    14.4062 H            1 0NX305   0.0000
@<TRIPOS>BOND
     1    1    2       1
     2    2    3       1
     3    3    4       1
     4    3    5       2
     5    4    7       2
     6    5    6       1
     7    6    7       1
     8    7    8       1
     9    8    9      ar
    10    8   10      ar
    11    9   13      ar
    12   10   11      ar
    13   11   12      ar
    14   12   13      ar
    15    1   14       1
    16    2   15       1
    17    2   16       1
    18    4   17       1
    19    9   18       1
    20   10   19       1
    21   11   20       1
    22   12   21       1
    23   13   22       1
@<TRIPOS>SUBSTRUCTURE
     1 0NX305      1 GROUP             4 A     0NX     0 **** 0NX A 305
