@<TRIPOS>MOLECULE
4oag_ADP_2_ligand
   39    41     1     0     0
SMALL
NO_CHARGES


@<TRIPOS>ATOM
     1 PB          50.4510   -22.8810    40.7130 P.3          1 ADP502   0.0000
     2 O1B         49.4380   -23.2200    41.7960 O.co2        1 ADP502   0.0000
     3 O2B         51.8790   -22.9060    41.1890 O.co2        1 ADP502  -1.0000
     4 O3B         50.0710   -21.6490    39.9180 O.co2        1 ADP502  -1.0000
     5 PA          51.2660   -24.6990    38.5950 P.3          1 ADP502   0.0000
     6 O1A         50.4780   -25.4090    37.5120 O.co2        1 ADP502   0.0000
     7 O2A         52.2930   -23.6480    38.2690 O.co2        1 ADP502  -1.0000
     8 O3A         50.2340   -24.1210    39.6960 O.3          1 ADP502   0.0000
     9 O5'         51.9250   -25.8070    39.5520 O.3          1 ADP502   0.0000
    10 C5'         53.1590   -25.6110    40.2330 C.3          1 ADP502   0.0000
    11 C4'         53.7810   -26.9840    40.4230 C.3          1 ADP502   0.0000
    12 O4'         53.9650   -27.5420    39.1070 O.3          1 ADP502   0.0000
    13 C3'         55.1470   -26.9720    41.0900 C.3          1 ADP502   0.0000
    14 O3'         55.2080   -28.0510    42.0220 O.3          1 ADP502   0.0000
    15 C2'         56.1220   -27.2120    39.9480 C.3          1 ADP502   0.0000
    16 O2'         57.3090   -27.8990    40.3510 O.3          1 ADP502   0.0000
    17 C1'         55.2890   -28.0730    39.0170 C.3          1 ADP502   0.0000
    18 N9          55.7500   -28.0620    37.6170 N.pl3        1 ADP502   0.0000
    19 C8          56.0400   -26.9910    36.8470 C.2          1 ADP502   0.0000
    20 N7          56.4250   -27.4030    35.6040 N.2          1 ADP502   0.0000
    21 C5          56.3790   -28.7520    35.5950 C.ar         1 ADP502   0.0000
    22 C6          56.6660   -29.7980    34.6040 C.ar         1 ADP502   0.0000
    23 N6          57.0810   -29.4420    33.3640 N.pl3        1 ADP502   0.0000
    24 N1          56.4940   -31.0830    34.9800 N.ar         1 ADP502   0.0000
    25 C2          56.0770   -31.4060    36.2260 C.ar         1 ADP502   0.0000
    26 N3          55.8080   -30.5000    37.1860 N.ar         1 ADP502   0.0000
    27 C4          55.9400   -29.1790    36.9180 C.ar         1 ADP502   0.0000
    28 H5'1        52.9971   -25.1809    41.1212 H            1 ADP502   0.0000
    29 H5'2        53.7646   -25.0316    39.6875 H            1 ADP502   0.0000
    30 H4'         53.1577   -27.5637    40.9478 H            1 ADP502   0.0000
    31 H3'         55.3233   -26.0958    41.5385 H            1 ADP502   0.0000
    32 H5          56.1026   -28.0553    42.4689 H            1 ADP502   0.0000
    33 H2'         56.3558   -26.3470    39.5040 H            1 ADP502   0.0000
    34 H7          57.9061   -28.0256    39.5589 H            1 ADP502   0.0000
    35 H1'         55.2881   -29.0144    39.3543 H            1 ADP502   0.0000
    36 H9          55.9814   -26.0378    37.1435 H            1 ADP502   0.0000
    37 H10         57.2791   -30.1458    32.6818 H            1 ADP502   0.0000
    38 H11         57.1891   -28.4755    33.1312 H            1 ADP502   0.0000
    39 H12         55.9617   -32.3744    36.4473 H            1 ADP502   0.0000
@<TRIPOS>BOND
     1    1    2      ar
     2    1    3      ar
     3    1    4      ar
     4    1    8       1
     5    5    6      ar
     6    5    7      ar
     7    5    8       1
     8    5    9       1
     9    9   10       1
    10   10   11       1
    11   11   12       1
    12   11   13       1
    13   12   17       1
    14   13   14       1
    15   13   15       1
    16   15   16       1
    17   15   17       1
    18   17   18       1
    19   18   19       1
    20   18   27       1
    21   19   20       2
    22   20   21       1
    23   21   22      ar
    24   21   27      ar
    25   22   23       1
    26   22   24      ar
    27   24   25      ar
    28   25   26      ar
    29   26   27      ar
    30   25   39       1
    31   23   38       1
    32   23   37       1
    33   10   28       1
    34   10   29       1
    35   11   30       1
    36   13   31       1
    37   14   32       1
    38   15   33       1
    39   16   34       1
    40   17   35       1
    41   19   36       1
@<TRIPOS>SUBSTRUCTURE
     1 ADP502      1 GROUP             4 B     ADP     0 **** ADP B 502
