@<TRIPOS>MOLECULE
2uyq_SAM_1_ligand
   28    30     1     0     0
SMALL
NO_CHARGES


@<TRIPOS>ATOM
     1 C4'         -9.4620   -26.8210    -3.5750 C.3          1 SAM1311   0.0000
     2 O4'         -8.4550   -27.7650    -3.1920 O.3          1 SAM1311   0.0000
     3 C3'         -8.8400   -25.4410    -3.3670 C.3          1 SAM1311   0.0000
     4 O3'         -9.2770   -24.9060    -2.1380 O.3          1 SAM1311   0.0000
     5 C2'         -7.3440   -25.6910    -3.2510 C.3          1 SAM1311   0.0000
     6 O2'         -6.6570   -24.6720    -2.5170 O.3          1 SAM1311   0.0000
     7 C1'         -7.4070   -27.0390    -2.5520 C.3          1 SAM1311   0.0000
     8 N9          -6.1070   -27.7180    -2.5790 N.pl3        1 SAM1311   0.0000
     9 C8          -5.5020   -28.2500    -3.6850 C.2          1 SAM1311   0.0000
    10 N7          -4.3120   -28.7550    -3.2890 N.2          1 SAM1311   0.0000
    11 C5          -4.1590   -28.5670    -1.9440 C.ar         1 SAM1311   0.0000
    12 C6          -3.1390   -28.9000    -1.0450 C.ar         1 SAM1311   0.0000
    13 N6          -2.0350   -29.5350    -1.4640 N.pl3        1 SAM1311   0.0000
    14 N1          -3.2860   -28.5700     0.2920 N.ar         1 SAM1311   0.0000
    15 C2          -4.4150   -27.9040     0.7510 C.ar         1 SAM1311   0.0000
    16 N3          -5.4180   -27.5860    -0.1490 N.ar         1 SAM1311   0.0000
    17 C4          -5.2910   -27.9080    -1.4760 C.ar         1 SAM1311   0.0000
    18 H4'1       -10.2745   -26.9267    -3.0016 H            1 SAM1311   0.0000
    19 H4'2        -9.7123   -26.9490    -4.5347 H            1 SAM1311   0.0000
    20 H3'         -9.0499   -24.8271    -4.1280 H            1 SAM1311   0.0000
    21 H4          -8.6441   -25.1769    -1.4127 H            1 SAM1311   0.0000
    22 H2'         -6.9400   -25.7927    -4.1601 H            1 SAM1311   0.0000
    23 H6          -6.6392   -24.9145    -1.5470 H            1 SAM1311   0.0000
    24 H1'         -7.6646   -26.8880    -1.5976 H            1 SAM1311   0.0000
    25 H8          -5.8716   -28.2629    -4.6141 H            1 SAM1311   0.0000
    26 H9          -1.3137   -29.7672    -0.8115 H            1 SAM1311   0.0000
    27 H10         -1.9329   -29.7764    -2.4290 H            1 SAM1311   0.0000
    28 H11         -4.5021   -27.6580     1.7163 H            1 SAM1311   0.0000
@<TRIPOS>BOND
     1    1    2       1
     2    1    3       1
     3    2    7       1
     4    3    4       1
     5    3    5       1
     6    5    6       1
     7    5    7       1
     8    7    8       1
     9    8    9       1
    10    8   17       1
    11    9   10       2
    12   10   11       1
    13   11   12      ar
    14   11   17      ar
    15   12   13       1
    16   12   14      ar
    17   14   15      ar
    18   15   16      ar
    19   16   17      ar
    20    1   18       1
    21    1   19       1
    22    3   20       1
    23    4   21       1
    24    5   22       1
    25    6   23       1
    26    7   24       1
    27    9   25       1
    28   13   26       1
    29   13   27       1
    30   15   28       1
@<TRIPOS>SUBSTRUCTURE
     1 SAM1311     1 GROUP             4 A     SAM     0 **** SAM A1311
