@<TRIPOS>MOLECULE
2gcd_STU_1_ligand
   62    69     1     0     0
SMALL
NO_CHARGES


@<TRIPOS>ATOM
     1 O4          45.8590    57.0510    -0.5390 O.3          1 STU400   0.0000
     2 C25         44.7410    56.1840    -0.2990 C.3          1 STU400   0.0000
     3 C24         43.5290    56.7670     0.4440 C.3          1 STU400   0.0000
     4 C23         43.8720    58.2270     0.8050 C.3          1 STU400   0.0000
     5 C22         45.2440    58.1740     1.5710 C.3          1 STU400   0.0000
     6 C21         46.3690    57.8040     0.5660 C.3          1 STU400   0.0000
     7 C26         46.8520    59.1810     0.0540 C.3          1 STU400   0.0000
     8 N2          47.4080    57.0880     1.3760 N.pl3        1 STU400   0.0000
     9 C18         47.3120    55.7080     1.5690 C.ar         1 STU400   0.0000
    10 C19         46.3380    54.8060     1.1170 C.ar         1 STU400   0.0000
    11 C6          46.4370    53.4730     1.5050 C.ar         1 STU400   0.0000
    12 C7          47.5030    52.9960     2.3080 C.ar         1 STU400   0.0000
    13 C10         48.4840    53.9090     2.7280 C.ar         1 STU400   0.0000
    14 C11         48.3680    55.2730     2.4030 C.ar         1 STU400   0.0000
    15 C12         49.1680    56.4210     2.7270 C.ar         1 STU400   0.0000
    16 C17         48.5730    57.5210     2.0740 C.ar         1 STU400   0.0000
    17 C16         49.1880    58.7900     2.2170 C.ar         1 STU400   0.0000
    18 C15         50.3620    58.8870     3.0010 C.ar         1 STU400   0.0000
    19 C14         50.8970    57.7600     3.6300 C.ar         1 STU400   0.0000
    20 C13         50.3040    56.5340     3.5080 C.ar         1 STU400   0.0000
    21 C9          49.4910    53.1480     3.5980 C.3          1 STU400   0.0000
    22 N1          48.9840    51.7480     3.6020 N.am         1 STU400   0.0000
    23 C8          47.8460    51.6470     2.8320 C.2          1 STU400   0.0000
    24 O5          47.2230    50.6040     2.6690 O.2          1 STU400   0.0000
    25 C5          45.3390    52.7680     0.8630 C.ar         1 STU400   0.0000
    26 C20         44.5950    53.7720     0.1880 C.ar         1 STU400   0.0000
    27 C1          43.4730    53.4330    -0.5360 C.ar         1 STU400   0.0000
    28 C2          43.1170    52.0490    -0.4960 C.ar         1 STU400   0.0000
    29 C3          43.8220    51.0700     0.2270 C.ar         1 STU400   0.0000
    30 C4          44.9750    51.3900     0.9140 C.ar         1 STU400   0.0000
    31 N3          45.2490    54.9700     0.3480 N.pl3        1 STU400   0.0000
    32 O6          45.0890    57.1480     2.5980 O.3          1 STU400   0.0000
    33 C27         45.6380    57.6520     3.8340 C.3          1 STU400   0.0000
    34 N4          42.7720    59.0010     1.4850 N.4          1 STU400   1.0000
    35 C28         41.4360    58.5830     0.8720 C.3          1 STU400   0.0000
    36 H1          44.4079    55.9023    -1.1988 H            1 STU400   0.0000
    37 H2          43.3521    56.2412     1.2760 H            1 STU400   0.0000
    38 H3          42.7213    56.7407    -0.1450 H            1 STU400   0.0000
    39 H4          44.0514    58.6954    -0.0601 H            1 STU400   0.0000
    40 H5          45.4371    59.0592     1.9942 H            1 STU400   0.0000
    41 H6          47.2104    59.7145     0.8201 H            1 STU400   0.0000
    42 H7          47.5727    59.0495    -0.6266 H            1 STU400   0.0000
    43 H8          46.0852    59.6694    -0.3626 H            1 STU400   0.0000
    44 H9          48.8009    59.5986     1.7738 H            1 STU400   0.0000
    45 H10         50.8141    59.7727     3.1061 H            1 STU400   0.0000
    46 H11         51.7279    57.8516     4.1789 H            1 STU400   0.0000
    47 H12         50.6840    55.7350     3.9741 H            1 STU400   0.0000
    48 H13         49.5113    53.5207     4.5257 H            1 STU400   0.0000
    49 H14         50.4077    53.1923     3.2009 H            1 STU400   0.0000
    50 H15         49.4094    50.9884     4.0940 H            1 STU400   0.0000
    51 H16         42.9452    54.1071    -1.0527 H            1 STU400   0.0000
    52 H17         42.3141    51.7579    -1.0162 H            1 STU400   0.0000
    53 H18         43.4830    50.1293     0.2434 H            1 STU400   0.0000
    54 H19         45.5137    50.7085     1.4093 H            1 STU400   0.0000
    55 H20         45.5396    56.9600     4.5491 H            1 STU400   0.0000
    56 H21         46.6069    57.8640     3.7064 H            1 STU400   0.0000
    57 H22         45.1479    58.4812     4.1028 H            1 STU400   0.0000
    58 H23         42.9144    59.9812     1.3476 H            1 STU400   0.0000
    59 H24         40.6943    59.0883     1.3130 H            1 STU400   0.0000
    60 H25         41.4408    58.7851    -0.1074 H            1 STU400   0.0000
    61 H26         41.2987    57.6020     1.0093 H            1 STU400   0.0000
    62 H27         42.7722    58.7982     2.4642 H            1 STU400   0.0000
@<TRIPOS>BOND
     1    1    2       1
     2    1    6       1
     3    2    3       1
     4    2   31       1
     5    3    4       1
     6    4    5       1
     7    4   34       1
     8    5    6       1
     9    5   32       1
    10    6    7       1
    11    6    8       1
    12    8    9       1
    13    8   16       1
    14    9   10      ar
    15    9   14      ar
    16   10   11      ar
    17   10   31       1
    18   11   12      ar
    19   11   25       1
    20   12   13      ar
    21   12   23       1
    22   13   14      ar
    23   13   21       1
    24   14   15       1
    25   15   16      ar
    26   15   20      ar
    27   16   17      ar
    28   17   18      ar
    29   18   19      ar
    30   19   20      ar
    31   21   22       1
    32   22   23      am
    33   23   24       2
    34   25   26      ar
    35   25   30      ar
    36   26   27      ar
    37   26   31       1
    38   27   28      ar
    39   28   29      ar
    40   29   30      ar
    41   32   33       1
    42   34   35       1
    43    2   36       1
    44    3   37       1
    45    3   38       1
    46    4   39       1
    47    5   40       1
    48    7   41       1
    49    7   42       1
    50    7   43       1
    51   17   44       1
    52   18   45       1
    53   19   46       1
    54   20   47       1
    55   21   48       1
    56   21   49       1
    57   22   50       1
    58   27   51       1
    59   28   52       1
    60   29   53       1
    61   30   54       1
    62   33   55       1
    63   33   56       1
    64   33   57       1
    65   34   58       1
    66   35   59       1
    67   35   60       1
    68   35   61       1
    69   34   62       1
@<TRIPOS>SUBSTRUCTURE
     1 STU400      1 GROUP             4 A     STU     0 **** STU A 400
