@<TRIPOS>MOLECULE
2aj4_ANP_1_ligand
   44    46     1     0     0
SMALL
NO_CHARGES


@<TRIPOS>ATOM
     1 PG          12.8140     5.6240    15.6610 P.3          1 ANP532   0.0000
     2 O1G         12.1630     4.3300    16.0770 O.co2        1 ANP532   0.0000
     3 O2G         11.7660     6.7090    15.6140 O.co2        1 ANP532  -1.0000
     4 O3G         13.5520     5.5420    14.2540 O.co2        1 ANP532  -1.0000
     5 PB          14.3390     7.3390    17.5020 P.3          1 ANP532   0.0000
     6 O1B         13.0350     7.8810    18.0450 O.co2        1 ANP532   0.0000
     7 O2B         15.3460     7.1430    18.6100 O.co2        1 ANP532  -1.0000
     8 N3B         13.9760     5.9550    16.7380 N.3          1 ANP532   0.0000
     9 PA          15.7790     8.2760    15.1570 P.3          1 ANP532   0.0000
    10 O1A         15.0210     7.5180    14.0750 O.co2        1 ANP532   0.0000
    11 O2A         16.0490     9.6630    14.6880 O.co2        1 ANP532  -1.0000
    12 O3A         14.9450     8.4220    16.5130 O.3          1 ANP532   0.0000
    13 O5'         17.1540     7.5040    15.4630 O.3          1 ANP532   0.0000
    14 C5'         17.8650     7.9390    16.6180 C.3          1 ANP532   0.0000
    15 C4'         19.2030     8.5650    16.2450 C.3          1 ANP532   0.0000
    16 O4'         20.1150     7.5820    15.6420 O.3          1 ANP532   0.0000
    17 C3'         19.1760     9.7240    15.2610 C.3          1 ANP532   0.0000
    18 O3'         18.7310    10.9390    15.8800 O.3          1 ANP532   0.0000
    19 C2'         20.6340     9.7090    14.7780 C.3          1 ANP532   0.0000
    20 O2'         21.5060    10.4470    15.6690 O.3          1 ANP532   0.0000
    21 C1'         20.9830     8.2070    14.7540 C.3          1 ANP532   0.0000
    22 N9          20.6420     7.6750    13.4600 N.pl3        1 ANP532   0.0000
    23 C8          19.4670     7.0930    13.0880 C.2          1 ANP532   0.0000
    24 N7          19.4140     6.8100    11.7830 N.2          1 ANP532   0.0000
    25 C5          20.6460     7.2320    11.3030 C.ar         1 ANP532   0.0000
    26 C6          21.1810     7.1960    10.0000 C.ar         1 ANP532   0.0000
    27 N6          20.6060     6.8090     8.9720 N.pl3        1 ANP532   0.0000
    28 N1          22.4510     7.6740     9.9380 N.ar         1 ANP532   0.0000
    29 C2          23.1550     8.1730    11.0130 C.ar         1 ANP532   0.0000
    30 N3          22.6770     8.2260    12.2280 N.ar         1 ANP532   0.0000
    31 C4          21.4200     7.7420    12.3220 C.ar         1 ANP532   0.0000
    32 H3B         13.8106     5.3052    17.4799 H            1 ANP532   0.0000
    33 H5'1        18.0286     7.1531    17.2144 H            1 ANP532   0.0000
    34 H5'2        17.3129     8.6168    17.1037 H            1 ANP532   0.0000
    35 H4'         19.6281     8.8942    17.0881 H            1 ANP532   0.0000
    36 H3'         18.5705     9.4984    14.4978 H            1 ANP532   0.0000
    37 H6          17.7368    11.0097    15.7990 H            1 ANP532   0.0000
    38 H2'         20.6912    10.0873    13.8541 H            1 ANP532   0.0000
    39 H8          21.8633     9.8313    16.3713 H            1 ANP532   0.0000
    40 H1'         21.9412     8.0410    14.9869 H            1 ANP532   0.0000
    41 H10         18.7217     6.8980    13.7256 H            1 ANP532   0.0000
    42 H11         21.0848     6.8273     8.0943 H            1 ANP532   0.0000
    43 H12         19.6634     6.4785     9.0206 H            1 ANP532   0.0000
    44 H13         24.0820     8.5129    10.8544 H            1 ANP532   0.0000
@<TRIPOS>BOND
     1    1    2      ar
     2    1    3      ar
     3    1    4      ar
     4    1    8       1
     5    5    6      ar
     6    5    7      ar
     7    5    8       1
     8    5   12       1
     9    9   10      ar
    10    9   11      ar
    11    9   12       1
    12    9   13       1
    13   13   14       1
    14   14   15       1
    15   15   16       1
    16   15   17       1
    17   16   21       1
    18   17   18       1
    19   17   19       1
    20   19   20       1
    21   19   21       1
    22   21   22       1
    23   22   23       1
    24   22   31       1
    25   23   24       2
    26   24   25       1
    27   25   26      ar
    28   25   31      ar
    29   26   27       1
    30   26   28      ar
    31   28   29      ar
    32   29   30      ar
    33   30   31      ar
    34   29   44       1
    35   27   43       1
    36   27   42       1
    37    8   32       1
    38   23   41       1
    39   14   33       1
    40   14   34       1
    41   15   35       1
    42   17   36       1
    43   18   37       1
    44   19   38       1
    45   20   39       1
    46   21   40       1
@<TRIPOS>SUBSTRUCTURE
     1 ANP532      1 GROUP             4 A     ANP     0 **** ANP A 532
