@<TRIPOS>MOLECULE
4r3a_RBF_2_ligand
   47    49     1     0     0
SMALL
NO_CHARGES


@<TRIPOS>ATOM
     1 N1          10.1910    28.1120    13.1550 N.2          1 RBF402   0.0000
     2 C2          10.5930    28.2560    14.4410 C.2          1 RBF402   0.0000
     3 O2          11.7470    28.0300    14.7360 O.2          1 RBF402   0.0000
     4 N3           9.7260    28.6460    15.3910 N.pl3        1 RBF402   0.0000
     5 C4           8.4490    28.9310    15.0710 C.2          1 RBF402   0.0000
     6 O4           7.6710    29.2880    15.9400 O.2          1 RBF402   0.0000
     7 C4A          8.0070    28.8180    13.7510 C.2          1 RBF402   0.0000
     8 N5           6.7400    29.1050    13.4100 N.2          1 RBF402   0.0000
     9 C5A          6.3280    28.9970    12.1480 C.ar         1 RBF402   0.0000
    10 C6           4.9820    29.3120    11.8280 C.ar         1 RBF402   0.0000
    11 C7           4.5020    29.2120    10.5260 C.ar         1 RBF402   0.0000
    12 C7M          3.0190    29.5820    10.3060 C.3          1 RBF402   0.0000
    13 C8           5.3550    28.7980     9.5150 C.ar         1 RBF402   0.0000
    14 C8M          4.9340    28.6540     8.0560 C.3          1 RBF402   0.0000
    15 C9           6.6840    28.4840     9.8130 C.ar         1 RBF402   0.0000
    16 C9A          7.1920    28.5800    11.1340 C.ar         1 RBF402   0.0000
    17 N10          8.5100    28.2720    11.4340 N.pl3        1 RBF402   0.0000
    18 C10          8.9250    28.3900    12.7710 C.2          1 RBF402   0.0000
    19 C1'          9.4780    27.8140    10.4380 C.3          1 RBF402   0.0000
    20 C2'         10.3370    28.9660     9.9040 C.3          1 RBF402   0.0000
    21 O2'          9.5240    30.0390     9.5710 O.3          1 RBF402   0.0000
    22 C3'         11.1140    28.5180     8.6710 C.3          1 RBF402   0.0000
    23 O3'         10.2100    28.1970     7.6480 O.3          1 RBF402   0.0000
    24 C4'         11.9900    27.3070     8.9770 C.3          1 RBF402   0.0000
    25 O4'         12.8920    27.6280    10.0030 O.3          1 RBF402   0.0000
    26 C5'         12.7690    26.8890     7.7400 C.3          1 RBF402   0.0000
    27 O5'         13.7640    27.8400     7.4520 O.3          1 RBF402   0.0000
    28 H1          10.0305    28.7250    16.3402 H            1 RBF402   0.0000
    29 H2           4.3644    29.6127    12.5548 H            1 RBF402   0.0000
    30 H7M1         2.7882    29.4731     9.3391 H            1 RBF402   0.0000
    31 H7M2         2.4402    28.9806    10.8567 H            1 RBF402   0.0000
    32 H7M3         2.8683    30.5319    10.5797 H            1 RBF402   0.0000
    33 H8M1         5.7142    28.3433     7.5131 H            1 RBF402   0.0000
    34 H8M2         4.1929    27.9861     7.9873 H            1 RBF402   0.0000
    35 H8M3         4.6189    29.5382     7.7112 H            1 RBF402   0.0000
    36 H9           7.2914    28.1844     9.0772 H            1 RBF402   0.0000
    37 H1'1         8.9840    27.3981     9.6744 H            1 RBF402   0.0000
    38 H1'2        10.0767    27.1323    10.8586 H            1 RBF402   0.0000
    39 H2'         10.9821    29.2506    10.6131 H            1 RBF402   0.0000
    40 H13         10.0872    30.7886     9.2231 H            1 RBF402   0.0000
    41 H3'         11.6969    29.2704     8.3642 H            1 RBF402   0.0000
    42 H15         10.6334    28.3774     6.7602 H            1 RBF402   0.0000
    43 H4'         11.4105    26.5478     9.2735 H            1 RBF402   0.0000
    44 H17         12.4798    27.4133    10.8884 H            1 RBF402   0.0000
    45 H5'1        12.1434    26.8190     6.9630 H            1 RBF402   0.0000
    46 H5'2        13.1979    26.0006     7.9037 H            1 RBF402   0.0000
    47 H5'         14.6624    27.4017     7.4810 H            1 RBF402   0.0000
@<TRIPOS>BOND
     1    1    2       1
     2    1   18       2
     3    2    3       2
     4    2    4       1
     5    4    5       1
     6    5    6       2
     7    5    7       1
     8    7    8       2
     9    7   18       1
    10    8    9       1
    11    9   10      ar
    12    9   16      ar
    13   10   11      ar
    14   11   12       1
    15   11   13      ar
    16   13   14       1
    17   13   15      ar
    18   15   16      ar
    19   16   17       1
    20   17   18       1
    21   17   19       1
    22   19   20       1
    23   20   21       1
    24   20   22       1
    25   22   23       1
    26   22   24       1
    27   24   25       1
    28   24   26       1
    29   26   27       1
    30    4   28       1
    31   10   29       1
    32   12   30       1
    33   12   31       1
    34   12   32       1
    35   14   33       1
    36   14   34       1
    37   14   35       1
    38   15   36       1
    39   19   37       1
    40   19   38       1
    41   20   39       1
    42   21   40       1
    43   22   41       1
    44   23   42       1
    45   24   43       1
    46   25   44       1
    47   26   45       1
    48   26   46       1
    49   27   47       1
@<TRIPOS>SUBSTRUCTURE
     1 RBF402      1 GROUP             4 B     RBF     0 **** RBF B 402
