@<TRIPOS>MOLECULE
2vag_V25_1_ligand
   35    36     1     0     0
SMALL
NO_CHARGES


@<TRIPOS>ATOM
     1 CAA          7.9330    15.4020    16.2560 C.3          1 V251482   0.0000
     2 CAL          7.9170    16.2490    17.5470 C.3          1 V251482   0.0000
     3 OAM          7.3970    15.3410    18.5310 O.3          1 V251482   0.0000
     4 CAN          7.7080    15.6980    19.7940 C.2          1 V251482   0.0000
     5 OAE          7.9590    16.8870    19.9750 O.2          1 V251482   0.0000
     6 CAS          7.4990    14.7280    20.9440 C.2          1 V251482   0.0000
     7 NAV          7.5840    15.0440    22.2820 N.pl3        1 V251482   0.0000
     8 CAB          8.0230    16.3390    22.8060 C.3          1 V251482   0.0000
     9 CAU          7.2280    14.0320    23.0340 C.ar         1 V251482   0.0000
    10 CAQ          7.1830    13.8300    24.4160 C.ar         1 V251482   0.0000
    11 CL1          7.6130    15.0660    25.5510 Cl           1 V251482   0.0000
    12 CAP          6.7600    12.6390    24.9380 C.ar         1 V251482   0.0000
    13 CL2          6.6910    12.3730    26.6540 Cl           1 V251482   0.0000
    14 CAJ          6.3800    11.6180    24.0850 C.ar         1 V251482   0.0000
    15 CAK          6.4480    11.7810    22.7130 C.ar         1 V251482   0.0000
    16 CAT          6.8750    12.9770    22.1610 C.ar         1 V251482   0.0000
    17 CAR          6.9990    13.4270    20.8480 C.2          1 V251482   0.0000
    18 CAO          6.7970    12.5760    19.7300 C.2          1 V251482   0.0000
    19 CAH          5.6420    11.7710    19.5360 C.1          1 V251482   0.0000
    20 NAC          4.7220    11.1200    19.3820 N.1          1 V251482   0.0000
    21 CAI          7.8380    12.3090    18.8110 C.2          1 V251482   0.0000
    22 NAD          9.0180    12.9120    18.7750 N.pl3        1 V251482   0.0000
    23 HAA1         8.2849    15.9536    15.4998 H            1 V251482   0.0000
    24 HAA2         8.5209    14.6039    16.3882 H            1 V251482   0.0000
    25 HAA3         7.0036    15.0999    16.0440 H            1 V251482   0.0000
    26 HAL1         7.3219    17.0462    17.4451 H            1 V251482   0.0000
    27 HAL2         8.8392    16.5502    17.7893 H            1 V251482   0.0000
    28 HAB1         7.9981    16.3199    23.8055 H            1 V251482   0.0000
    29 HAB2         8.9567    16.5235    22.4993 H            1 V251482   0.0000
    30 HAB3         7.4139    17.0579    22.4711 H            1 V251482   0.0000
    31 HAJ          6.0526    10.7527    24.4645 H            1 V251482   0.0000
    32 HAK          6.1855    11.0258    22.1124 H            1 V251482   0.0000
    33 HAI          7.6686    11.6007    18.1257 H            1 V251482   0.0000
    34 HAD1         9.6916    12.6518    18.0832 H            1 V251482   0.0000
    35 HAD2         9.2346    13.6271    19.4396 H            1 V251482   0.0000
@<TRIPOS>BOND
     1    1    2       1
     2    2    3       1
     3    3    4       1
     4    4    5       2
     5    4    6       1
     6    6    7       1
     7    6   17       2
     8    7    8       1
     9    7    9       1
    10    9   10      ar
    11    9   16      ar
    12   10   11       1
    13   10   12      ar
    14   12   13       1
    15   12   14      ar
    16   14   15      ar
    17   15   16      ar
    18   16   17       1
    19   17   18       1
    20   18   19       1
    21   18   21       2
    22   19   20       3
    23   21   22       1
    24    1   23       1
    25    1   24       1
    26    1   25       1
    27    2   26       1
    28    2   27       1
    29    8   28       1
    30    8   29       1
    31    8   30       1
    32   14   31       1
    33   15   32       1
    34   21   33       1
    35   22   34       1
    36   22   35       1
@<TRIPOS>SUBSTRUCTURE
     1 V251482     1 GROUP             4 A     V25     0 **** V25 A1482
