@<TRIPOS>MOLECULE
2zba_ZBA_4_ligand
   65    68     1     0     0
SMALL
NO_CHARGES


@<TRIPOS>ATOM
     1 O18        119.8550    37.6470   -47.6080 O.2          1 ZBA461   0.0000
     2 C44        118.7930    37.8430   -48.1470 C.2          1 ZBA461   0.0000
     3 C45        118.5540    38.5490   -49.4220 C.3          1 ZBA461   0.0000
     4 C46        119.0090    37.7530   -50.5730 C.2          1 ZBA461   0.0000
     5 C48        118.4140    36.4790   -50.9120 C.2          1 ZBA461   0.0000
     6 C47        120.1070    38.1710   -51.4960 C.3          1 ZBA461   0.0000
     7 O17        117.6420    37.4130   -47.6160 O.3          1 ZBA461   0.0000
     8 C31        117.4880    36.9190   -46.2490 C.3          1 ZBA461   0.0000
     9 C30        117.8620    37.9730   -45.2150 C.3          1 ZBA461   0.0000
    10 C32        116.0650    36.4790   -46.2180 C.2          1 ZBA461   0.0000
    11 C39        115.7980    35.1800   -46.9160 C.3          1 ZBA461   0.0000
    12 C33        115.1490    37.2080   -45.6160 C.2          1 ZBA461   0.0000
    13 C34        115.4510    38.2760   -44.6240 C.3          1 ZBA461   0.0000
    14 O10        115.4580    37.6290   -43.3100 O.3          1 ZBA461   0.0000
    15 C29        116.7990    39.0640   -44.8320 C.3          1 ZBA461   0.0000
    16 C38        116.5580    40.0120   -46.0210 C.3          1 ZBA461   0.0000
    17 O12        117.7760    40.4280   -46.6830 O.3          1 ZBA461   0.0000
    18 C40        117.5850    41.4660   -47.4970 C.2          1 ZBA461   0.0000
    19 C41        118.4650    42.6300   -47.1580 C.3          1 ZBA461   0.0000
    20 O13        116.8220    41.4760   -48.3680 O.2          1 ZBA461   0.0000
    21 C28        117.1790    39.8910   -43.4870 C.3          1 ZBA461   0.0000
    22 C37        118.4980    40.6940   -43.6660 C.3          1 ZBA461   0.0000
    23 C35        117.2870    38.8810   -42.3380 C.3          1 ZBA461   0.0000
    24 C25        115.8960    38.4160   -42.1840 C.3          1 ZBA461   0.0000
    25 C36        118.4680    38.1920   -41.8920 C.3          1 ZBA461   0.0000
    26 O11        117.9210    39.2540   -41.1000 O.3          1 ZBA461   0.0000
    27 C27        115.9190    40.7180   -42.9640 C.3          1 ZBA461   0.0000
    28 C26        115.2360    39.7660   -41.9950 C.3          1 ZBA461   0.0000
    29 O16        113.8440    39.6630   -42.1460 O.3          1 ZBA461   0.0000
    30 O14        116.1390    42.0150   -42.3250 O.3          1 ZBA461   0.0000
    31 C42        116.1080    43.2040   -43.0620 C.2          1 ZBA461   0.0000
    32 O15        115.4270    43.3350   -43.9950 O.2          1 ZBA461   0.0000
    33 C43        116.9810    44.3380   -42.6350 C.3          1 ZBA461   0.0000
    34 H1         119.0503    39.4171   -49.4107 H            1 ZBA461   0.0000
    35 H2         117.5744    38.7264   -49.5165 H            1 ZBA461   0.0000
    36 H3         118.7489    35.9651   -51.7018 H            1 ZBA461   0.0000
    37 H4         117.6678    36.1121   -50.3566 H            1 ZBA461   0.0000
    38 H5         120.2363    37.4713   -52.1986 H            1 ZBA461   0.0000
    39 H6         119.8652    39.0387   -51.9303 H            1 ZBA461   0.0000
    40 H7         120.9544    38.2828   -50.9769 H            1 ZBA461   0.0000
    41 H8         118.0768    36.1203   -46.1250 H            1 ZBA461   0.0000
    42 H9         118.6660    38.4549   -45.5634 H            1 ZBA461   0.0000
    43 H10        118.1023    37.4882   -44.3741 H            1 ZBA461   0.0000
    44 H11        114.8250    34.9592   -46.8485 H            1 ZBA461   0.0000
    45 H12        116.0557    35.2599   -47.8789 H            1 ZBA461   0.0000
    46 H13        116.3351    34.4542   -46.4863 H            1 ZBA461   0.0000
    47 H14        114.1900    37.0333   -45.8391 H            1 ZBA461   0.0000
    48 H15        114.7001    38.9362   -44.6407 H            1 ZBA461   0.0000
    49 H16        116.0858    40.8271   -45.6854 H            1 ZBA461   0.0000
    50 H17        115.9795    39.5425   -46.6881 H            1 ZBA461   0.0000
    51 H18        118.2851    43.3803   -47.7942 H            1 ZBA461   0.0000
    52 H19        118.2735    42.9318   -46.2240 H            1 ZBA461   0.0000
    53 H20        119.4238    42.3550   -47.2295 H            1 ZBA461   0.0000
    54 H21        118.7031    41.1905   -42.8225 H            1 ZBA461   0.0000
    55 H22        119.2465    40.0638   -43.8722 H            1 ZBA461   0.0000
    56 H23        118.3929    41.3443   -44.4184 H            1 ZBA461   0.0000
    57 H24        115.8113    37.8792   -41.3446 H            1 ZBA461   0.0000
    58 H25        119.3346    38.3232   -42.3734 H            1 ZBA461   0.0000
    59 H26        118.4040    37.2466   -41.5724 H            1 ZBA461   0.0000
    60 H27        115.3030    40.8595   -43.7390 H            1 ZBA461   0.0000
    61 H28        115.4264    40.0786   -41.0644 H            1 ZBA461   0.0000
    62 H29        113.3952    40.3532   -41.5783 H            1 ZBA461   0.0000
    63 H30        116.8491    45.1118   -43.2545 H            1 ZBA461   0.0000
    64 H31        116.7402    44.6117   -41.7038 H            1 ZBA461   0.0000
    65 H32        117.9382    44.0498   -42.6608 H            1 ZBA461   0.0000
@<TRIPOS>BOND
     1    1    2       2
     2    2    3       1
     3    2    7       1
     4    3    4       1
     5    4    5       2
     6    4    6       1
     7    7    8       1
     8    8    9       1
     9    8   10       1
    10    9   15       1
    11   10   11       1
    12   10   12       2
    13   12   13       1
    14   13   14       1
    15   13   15       1
    16   14   24       1
    17   15   16       1
    18   15   21       1
    19   16   17       1
    20   17   18       1
    21   18   19       1
    22   18   20       2
    23   21   22       1
    24   21   23       1
    25   21   27       1
    26   23   24       1
    27   23   25       1
    28   23   26       1
    29   24   28       1
    30   25   26       1
    31   27   28       1
    32   27   30       1
    33   28   29       1
    34   30   31       1
    35   31   32       2
    36   31   33       1
    37    3   34       1
    38    3   35       1
    39    5   36       1
    40    5   37       1
    41    6   38       1
    42    6   39       1
    43    6   40       1
    44    8   41       1
    45    9   42       1
    46    9   43       1
    47   11   44       1
    48   11   45       1
    49   11   46       1
    50   12   47       1
    51   13   48       1
    52   16   49       1
    53   16   50       1
    54   19   51       1
    55   19   52       1
    56   19   53       1
    57   22   54       1
    58   22   55       1
    59   22   56       1
    60   24   57       1
    61   25   58       1
    62   25   59       1
    63   27   60       1
    64   28   61       1
    65   29   62       1
    66   33   63       1
    67   33   64       1
    68   33   65       1
@<TRIPOS>SUBSTRUCTURE
     1 ZBA461      1 GROUP             4 D     ZBA     0 **** ZBA D 461
