@<TRIPOS>MOLECULE
1vhn_FMN_1_ligand
   50    52     1     0     0
SMALL
NO_CHARGES


@<TRIPOS>ATOM
     1 N1          -0.2130    18.8240     7.9170 N.2          1 FMN322   0.0000
     2 C2          -0.0720    18.8480     6.5760 C.2          1 FMN322   0.0000
     3 O2           0.2240    19.8480     5.9770 O.2          1 FMN322   0.0000
     4 N3          -0.2700    17.6280     5.8600 N.pl3        1 FMN322   0.0000
     5 C4          -0.5730    16.4320     6.4070 C.2          1 FMN322   0.0000
     6 O4          -0.7670    15.4080     5.7090 O.2          1 FMN322   0.0000
     7 C4A         -0.6650    16.3820     7.8520 C.2          1 FMN322   0.0000
     8 N5          -0.8270    15.2530     8.4950 N.2          1 FMN322   0.0000
     9 C5A         -1.0770    15.3340     9.8460 C.ar         1 FMN322   0.0000
    10 C6          -1.5220    14.1550    10.5310 C.ar         1 FMN322   0.0000
    11 C7          -1.9310    14.1930    11.8280 C.ar         1 FMN322   0.0000
    12 C7M         -2.4140    12.9530    12.5880 C.3          1 FMN322   0.0000
    13 C8          -1.9740    15.4380    12.5380 C.ar         1 FMN322   0.0000
    14 C8M         -2.3850    15.4740    14.0100 C.3          1 FMN322   0.0000
    15 C9          -1.5190    16.5940    11.9450 C.ar         1 FMN322   0.0000
    16 C9A         -1.0900    16.5590    10.5980 C.ar         1 FMN322   0.0000
    17 N10         -0.8450    17.7210     9.8670 N.pl3        1 FMN322   0.0000
    18 C10         -0.5490    17.6800     8.5320 C.2          1 FMN322   0.0000
    19 C1'         -0.7090    19.0350    10.5450 C.3          1 FMN322   0.0000
    20 C2'         -2.1030    19.6420    10.7340 C.3          1 FMN322   0.0000
    21 O2'         -2.6070    19.9970     9.4360 O.3          1 FMN322   0.0000
    22 C3'         -2.0920    20.9050    11.6090 C.3          1 FMN322   0.0000
    23 O3'         -1.3700    22.0040    10.9680 O.3          1 FMN322   0.0000
    24 C4'         -1.4490    20.6900    12.9530 C.3          1 FMN322   0.0000
    25 O4'         -2.0580    19.5410    13.5540 O.3          1 FMN322   0.0000
    26 C5'         -1.6260    21.8630    13.8960 C.3          1 FMN322   0.0000
    27 O5'         -3.0290    22.1600    14.1640 O.3          1 FMN322   0.0000
    28 P           -3.6660    21.7400    15.5750 P.3          1 FMN322   0.0000
    29 O1P         -2.6480    22.0210    16.6530 O.co2        1 FMN322   0.0000
    30 O2P         -4.0340    20.2780    15.5390 O.co2        1 FMN322  -1.0000
    31 O3P         -4.8470    22.7140    15.6120 O.co2        1 FMN322  -1.0000
    32 H1          -0.1757    17.6632     4.8651 H            1 FMN322   0.0000
    33 H2          -1.5319    13.2824    10.0426 H            1 FMN322   0.0000
    34 H7M1        -2.6640    13.2105    13.5214 H            1 FMN322   0.0000
    35 H7M2        -3.2113    12.5671    12.1238 H            1 FMN322   0.0000
    36 H7M3        -1.6820    12.2723    12.6147 H            1 FMN322   0.0000
    37 H8M1        -2.3590    16.4175    14.3404 H            1 FMN322   0.0000
    38 H8M2        -3.3125    15.1127    14.1061 H            1 FMN322   0.0000
    39 H8M3        -1.7524    14.9154    14.5465 H            1 FMN322   0.0000
    40 H9          -1.4921    17.4498    12.4615 H            1 FMN322   0.0000
    41 H1'1        -0.1500    19.6459     9.9843 H            1 FMN322   0.0000
    42 H1'2        -0.2738    18.9094    11.4365 H            1 FMN322   0.0000
    43 H2'         -2.7065    18.9599    11.1469 H            1 FMN322   0.0000
    44 H13         -3.1084    19.2227     9.0499 H            1 FMN322   0.0000
    45 H3'         -3.0381    21.1938    11.7558 H            1 FMN322   0.0000
    46 H15         -0.4053    21.9658    11.2285 H            1 FMN322   0.0000
    47 H4'         -0.4726    20.5154    12.8258 H            1 FMN322   0.0000
    48 H17         -2.8499    19.8273    14.0935 H            1 FMN322   0.0000
    49 H5'1        -1.2002    22.6700    13.4869 H            1 FMN322   0.0000
    50 H5'2        -1.1727    21.6495    14.7614 H            1 FMN322   0.0000
@<TRIPOS>BOND
     1    1    2       1
     2    1   18       2
     3    2    3       2
     4    2    4       1
     5    4    5       1
     6    5    6       2
     7    5    7       1
     8    7    8       2
     9    7   18       1
    10    8    9       1
    11    9   10      ar
    12    9   16      ar
    13   10   11      ar
    14   11   12       1
    15   11   13      ar
    16   13   14       1
    17   13   15      ar
    18   15   16      ar
    19   16   17       1
    20   17   18       1
    21   17   19       1
    22   19   20       1
    23   20   21       1
    24   20   22       1
    25   22   23       1
    26   22   24       1
    27   24   25       1
    28   24   26       1
    29   26   27       1
    30   27   28       1
    31   28   29      ar
    32   28   30      ar
    33   28   31      ar
    34    4   32       1
    35   10   33       1
    36   12   34       1
    37   12   35       1
    38   12   36       1
    39   14   37       1
    40   14   38       1
    41   14   39       1
    42   15   40       1
    43   19   41       1
    44   19   42       1
    45   20   43       1
    46   21   44       1
    47   22   45       1
    48   23   46       1
    49   24   47       1
    50   25   48       1
    51   26   49       1
    52   26   50       1
@<TRIPOS>SUBSTRUCTURE
     1 FMN322      1 GROUP             4 A     FMN     0 **** FMN A 322
