@<TRIPOS>MOLECULE
2zf4_PPY_9_ligand
   19    19     1     0     0
SMALL
NO_CHARGES


@<TRIPOS>ATOM
     1 C1           0.3310     6.9120   -42.9190 C.2          1 PPY192   0.0000
     2 O1           1.5510     7.0180   -43.1600 O.co2        1 PPY192   0.0000
     3 O2          -0.1400     7.2630   -41.8250 O.co2        1 PPY192  -1.0000
     4 C2          -0.5660     6.3680   -43.9380 C.2          1 PPY192   0.0000
     5 O3          -1.5750     6.9810   -44.2570 O.2          1 PPY192   0.0000
     6 C3          -0.2040     5.0520   -44.5820 C.3          1 PPY192   0.0000
     7 C1'         -1.3370     4.3360   -45.2980 C.ar         1 PPY192   0.0000
     8 C2'         -2.5670     4.0970   -44.6580 C.ar         1 PPY192   0.0000
     9 C3'         -3.5890     3.4270   -45.3290 C.ar         1 PPY192   0.0000
    10 C4'         -3.3620     2.9790   -46.6360 C.ar         1 PPY192   0.0000
    11 C5'         -2.1360     3.2130   -47.2820 C.ar         1 PPY192   0.0000
    12 C6'         -1.1170     3.8890   -46.6120 C.ar         1 PPY192   0.0000
    13 H1           0.1403     4.4441   -43.8665 H            1 PPY192   0.0000
    14 H2           0.5204     5.2253   -45.2492 H            1 PPY192   0.0000
    15 H2'         -2.7086     4.4088   -43.7185 H            1 PPY192   0.0000
    16 H3'         -4.4704     3.2689   -44.8838 H            1 PPY192   0.0000
    17 H4'         -4.0848     2.4839   -47.1182 H            1 PPY192   0.0000
    18 H5'         -1.9948     2.8955   -48.2197 H            1 PPY192   0.0000
    19 H6'         -0.2392     4.0539   -47.0617 H            1 PPY192   0.0000
@<TRIPOS>BOND
     1    1    2      ar
     2    1    3      ar
     3    1    4       1
     4    4    5       2
     5    4    6       1
     6    6    7       1
     7    7    8      ar
     8    7   12      ar
     9    8    9      ar
    10    9   10      ar
    11   10   11      ar
    12   11   12      ar
    13   12   19       1
    14    6   13       1
    15    6   14       1
    16    8   15       1
    17    9   16       1
    18   10   17       1
    19   11   18       1
@<TRIPOS>SUBSTRUCTURE
     1 PPY192      1 GROUP             4 E     PPY     0 **** PPY E 192
