@<TRIPOS>MOLECULE
3b9o_FMN_1_ligand
   50    52     1     0     0
SMALL
NO_CHARGES


@<TRIPOS>ATOM
     1 N1         -25.4010    33.2890    21.9010 N.2          1 FMN441   0.0000
     2 C2         -25.0360    33.0630    23.1840 C.2          1 FMN441   0.0000
     3 O2         -25.9470    32.8160    24.0280 O.2          1 FMN441   0.0000
     4 N3         -23.7020    33.1140    23.5050 N.pl3        1 FMN441   0.0000
     5 C4         -22.7460    33.3950    22.5630 C.2          1 FMN441   0.0000
     6 O4         -21.5390    33.4460    22.8810 O.2          1 FMN441   0.0000
     7 C4A        -23.1220    33.6390    21.2330 C.2          1 FMN441   0.0000
     8 N5         -22.2230    33.9310    20.2450 N.2          1 FMN441   0.0000
     9 C5A        -22.6560    34.1420    18.9610 C.ar         1 FMN441   0.0000
    10 C6         -21.7590    34.4340    17.9150 C.ar         1 FMN441   0.0000
    11 C7         -22.2250    34.6600    16.6050 C.ar         1 FMN441   0.0000
    12 C7M        -21.2740    34.9710    15.4690 C.3          1 FMN441   0.0000
    13 C8         -23.5850    34.6040    16.3370 C.ar         1 FMN441   0.0000
    14 C8M        -24.0980    34.8410    14.9350 C.3          1 FMN441   0.0000
    15 C9         -24.4890    34.3110    17.3650 C.ar         1 FMN441   0.0000
    16 C9A        -24.0370    34.0760    18.6760 C.ar         1 FMN441   0.0000
    17 N10        -24.9180    33.7920    19.6700 N.pl3        1 FMN441   0.0000
    18 C10        -24.4860    33.5680    20.9280 C.2          1 FMN441   0.0000
    19 C1'        -26.3730    33.7170    19.4180 C.3          1 FMN441   0.0000
    20 C2'        -27.0340    35.0520    19.8020 C.3          1 FMN441   0.0000
    21 O2'        -26.0750    35.9610    20.3450 O.3          1 FMN441   0.0000
    22 C3'        -28.2020    34.9530    20.7970 C.3          1 FMN441   0.0000
    23 O3'        -27.9070    34.1180    21.9380 O.3          1 FMN441   0.0000
    24 C4'        -29.5520    34.6320    20.1180 C.3          1 FMN441   0.0000
    25 O4'        -30.2090    33.5190    20.7320 O.3          1 FMN441   0.0000
    26 C5'        -29.4660    34.3620    18.6120 C.3          1 FMN441   0.0000
    27 O5'        -29.6620    35.6320    18.0030 O.3          1 FMN441   0.0000
    28 P          -30.3580    35.8250    16.5680 P.3          1 FMN441   0.0000
    29 O1P        -31.5070    34.8300    16.5610 O.co2        1 FMN441   0.0000
    30 O2P        -30.7490    37.2730    16.5910 O.co2        1 FMN441  -1.0000
    31 O3P        -29.3160    35.4350    15.5360 O.co2        1 FMN441  -1.0000
    32 H1         -23.4207    32.9420    24.4491 H            1 FMN441   0.0000
    33 H2         -20.7783    34.4815    18.1049 H            1 FMN441   0.0000
    34 H7M1       -21.7940    35.0981    14.6243 H            1 FMN441   0.0000
    35 H7M2       -20.7676    35.8076    15.6778 H            1 FMN441   0.0000
    36 H7M3       -20.6322    34.2127    15.3545 H            1 FMN441   0.0000
    37 H8M1       -25.0949    34.7625    14.9271 H            1 FMN441   0.0000
    38 H8M2       -23.8333    35.7570    14.6336 H            1 FMN441   0.0000
    39 H8M3       -23.7052    34.1602    14.3168 H            1 FMN441   0.0000
    40 H9         -25.4678    34.2683    17.1648 H            1 FMN441   0.0000
    41 H1'1       -26.7681    32.9803    19.9668 H            1 FMN441   0.0000
    42 H1'2       -26.5336    33.5332    18.4482 H            1 FMN441   0.0000
    43 H2'        -27.3910    35.4610    18.9622 H            1 FMN441   0.0000
    44 H13        -26.5283    36.8191    20.5861 H            1 FMN441   0.0000
    45 H3'        -28.3085    35.8754    21.1682 H            1 FMN441   0.0000
    46 H15        -26.9776    33.7582    21.8563 H            1 FMN441   0.0000
    47 H4'        -30.1425    35.4294    20.2423 H            1 FMN441   0.0000
    48 H17        -31.0758    33.3444    20.2649 H            1 FMN441   0.0000
    49 H5'1       -30.1792    33.7213    18.3278 H            1 FMN441   0.0000
    50 H5'2       -28.5692    33.9907    18.3714 H            1 FMN441   0.0000
@<TRIPOS>BOND
     1    1    2       1
     2    1   18       2
     3    2    3       2
     4    2    4       1
     5    4    5       1
     6    5    6       2
     7    5    7       1
     8    7    8       2
     9    7   18       1
    10    8    9       1
    11    9   10      ar
    12    9   16      ar
    13   10   11      ar
    14   11   12       1
    15   11   13      ar
    16   13   14       1
    17   13   15      ar
    18   15   16      ar
    19   16   17       1
    20   17   18       1
    21   17   19       1
    22   19   20       1
    23   20   21       1
    24   20   22       1
    25   22   23       1
    26   22   24       1
    27   24   25       1
    28   24   26       1
    29   26   27       1
    30   27   28       1
    31   28   29      ar
    32   28   30      ar
    33   28   31      ar
    34    4   32       1
    35   10   33       1
    36   12   34       1
    37   12   35       1
    38   12   36       1
    39   14   37       1
    40   14   38       1
    41   14   39       1
    42   15   40       1
    43   19   41       1
    44   19   42       1
    45   20   43       1
    46   21   44       1
    47   22   45       1
    48   23   46       1
    49   24   47       1
    50   25   48       1
    51   26   49       1
    52   26   50       1
@<TRIPOS>SUBSTRUCTURE
     1 FMN441      1 GROUP             4 A     FMN     0 **** FMN A 441
