@<TRIPOS>MOLECULE
3opd_HIE_1_ligand
   60    63     1     0     0
SMALL
NO_CHARGES


@<TRIPOS>ATOM
     1 C8           1.1060    14.5310    13.7980 C.3          1 HIE214   0.0000
     2 C5           1.0990    16.2220    12.0950 C.ar         1 HIE214   0.0000
     3 C6           1.8220    17.0210    11.0000 C.ar         1 HIE214   0.0000
     4 N1           3.9150    17.4350     9.6370 N.am         1 HIE214   0.0000
     5 C2          -0.2520    18.3470    10.6400 C.ar         1 HIE214   0.0000
     6 O2           3.6830    15.7540    11.0860 O.2          1 HIE214   0.0000
     7 N2           1.7360    15.2600    12.7640 N.pl3        1 HIE214   0.0000
     8 N3          -2.1790    17.8170    11.9670 N.pl3        1 HIE214   0.0000
     9 C3          -0.9020    17.6120    11.6470 C.ar         1 HIE214   0.0000
    10 C4          -0.2220    16.5860    12.3450 C.ar         1 HIE214   0.0000
    11 N4          -2.6220    18.2720    13.2190 N.2          1 HIE214   0.0000
    12 C10          0.1360    12.2730    14.5020 C.3          1 HIE214   0.0000
    13 C11          0.4830    12.6670    15.9960 C.3          1 HIE214   0.0000
    14 C12          1.8190    13.4500    16.0860 C.3          1 HIE214   0.0000
    15 C13          1.9810    14.6290    15.0160 C.3          1 HIE214   0.0000
    16 C14         -3.9910    18.3160    13.0350 C.2          1 HIE214   0.0000
    17 C15         -4.3550    17.8680    11.6830 C.2          1 HIE214   0.0000
    18 C16         -3.1480    17.5430    10.9950 C.2          1 HIE214   0.0000
    19 C19         -5.6750    17.2460     9.6050 C.3          1 HIE214   0.0000
    20 C21         -4.5440    16.2350     7.7030 C.3          1 HIE214   0.0000
    21 C1           1.1050    18.1240    10.3570 C.ar         1 HIE214   0.0000
    22 F1          -5.5790    17.6590    14.5050 F            1 HIE214   0.0000
    23 O1          -6.7090    18.0280    11.6280 O.2          1 HIE214   0.0000
    24 F2          -5.5660    19.8400    13.7720 F            1 HIE214   0.0000
    25 F3          -4.1890    18.7730    15.3360 F            1 HIE214   0.0000
    26 O3           0.5680    11.4840    16.8430 O.3          1 HIE214   0.0000
    27 C7           3.2270    16.7180    10.5700 C.2          1 HIE214   0.0000
    28 C9           1.0070    13.0150    13.4250 C.3          1 HIE214   0.0000
    29 C17         -3.1520    17.0740     9.5550 C.3          1 HIE214   0.0000
    30 C18         -4.4930    16.4210     9.2250 C.3          1 HIE214   0.0000
    31 C20         -5.6650    17.7300    11.0060 C.2          1 HIE214   0.0000
    32 C22         -4.6580    15.0810     9.8760 C.3          1 HIE214   0.0000
    33 C23         -4.8400    18.7390    14.1800 C.3          1 HIE214   0.0000
    34 H1           0.1982    14.9052    13.9877 H            1 HIE214   0.0000
    35 H2           4.8509    17.1764     9.3980 H            1 HIE214   0.0000
    36 H3           3.4838    18.2196     9.1916 H            1 HIE214   0.0000
    37 H4          -0.7604    19.0342    10.1211 H            1 HIE214   0.0000
    38 H5           2.6845    15.0489    12.5277 H            1 HIE214   0.0000
    39 H6          -0.7189    16.0935    13.0595 H            1 HIE214   0.0000
    40 H7          -0.8251    12.4924    14.3343 H            1 HIE214   0.0000
    41 H8           0.2766    11.2886    14.3959 H            1 HIE214   0.0000
    42 H9          -0.2489    13.2522    16.3452 H            1 HIE214   0.0000
    43 H10          2.5687    12.8022    15.9506 H            1 HIE214   0.0000
    44 H11          1.8844    13.8491    17.0006 H            1 HIE214   0.0000
    45 H12          1.7713    15.4918    15.4759 H            1 HIE214   0.0000
    46 H13          2.9330    14.6372    14.7101 H            1 HIE214   0.0000
    47 H14         -6.4973    16.6927     9.4720 H            1 HIE214   0.0000
    48 H15         -5.7073    18.0418     9.0003 H            1 HIE214   0.0000
    49 H16         -3.7634    15.6839     7.4082 H            1 HIE214   0.0000
    50 H17         -5.3935    15.7708     7.4522 H            1 HIE214   0.0000
    51 H18         -4.5084    17.1291     7.2565 H            1 HIE214   0.0000
    52 H19          1.5840    18.7211     9.7135 H            1 HIE214   0.0000
    53 H20          0.7876    11.7592    17.7789 H            1 HIE214   0.0000
    54 H21          1.9235    12.6155    13.4031 H            1 HIE214   0.0000
    55 H22          0.5800    12.9191    12.5258 H            1 HIE214   0.0000
    56 H23         -2.4173    16.4090     9.4208 H            1 HIE214   0.0000
    57 H24         -3.0070    17.8574     8.9507 H            1 HIE214   0.0000
    58 H25         -3.8796    14.4985     9.6418 H            1 HIE214   0.0000
    59 H26         -4.7019    15.1957    10.8684 H            1 HIE214   0.0000
    60 H27         -5.5026    14.6548     9.5521 H            1 HIE214   0.0000
@<TRIPOS>BOND
     1    1    7       1
     2    1   15       1
     3    1   28       1
     4    2    3      ar
     5    2    7       1
     6    2   10      ar
     7    3   21      ar
     8    3   27       1
     9    4   27      am
    10    5    9      ar
    11    5   21      ar
    12    6   27       2
    13    8    9       1
    14    8   11       1
    15    8   18       1
    16    9   10      ar
    17   11   16       2
    18   12   13       1
    19   12   28       1
    20   13   14       1
    21   13   26       1
    22   14   15       1
    23   16   17       1
    24   16   33       1
    25   17   18       2
    26   17   31       1
    27   18   29       1
    28   19   30       1
    29   19   31       1
    30   20   30       1
    31   22   33       1
    32   23   31       2
    33   24   33       1
    34   25   33       1
    35   29   30       1
    36   30   32       1
    37    1   34       1
    38    4   35       1
    39    4   36       1
    40    5   37       1
    41    7   38       1
    42   10   39       1
    43   12   40       1
    44   12   41       1
    45   13   42       1
    46   14   43       1
    47   14   44       1
    48   15   45       1
    49   15   46       1
    50   19   47       1
    51   19   48       1
    52   20   49       1
    53   20   50       1
    54   20   51       1
    55   21   52       1
    56   26   53       1
    57   28   54       1
    58   28   55       1
    59   29   56       1
    60   29   57       1
    61   32   58       1
    62   32   59       1
    63   32   60       1
@<TRIPOS>SUBSTRUCTURE
     1 HIE214      1 GROUP             4 A     HIE     0 **** HIE A 214
