@<TRIPOS>MOLECULE
2yld_ASC_1_ligand
   18    18     1     0     0
SMALL
NO_CHARGES


@<TRIPOS>ATOM
     1 O1          14.3780    31.1100    46.2930 O.2          1 ASC130   0.0000
     2 C1          14.7050    31.4510    45.1310 C.2          1 ASC130   0.0000
     3 C2          14.1560    32.5090    44.3280 C.2          1 ASC130   0.0000
     4 O2          13.1920    33.2880    44.8530 O.2          1 ASC130   0.0000
     5 C3          14.7720    32.4790    43.1140 C.2          1 ASC130   0.0000
     6 O3          14.6310    33.2540    42.0050 O.2          1 ASC130   0.0000
     7 C4          15.7640    31.3360    43.1010 C.3          1 ASC130   0.0000
     8 O4          15.7630    30.8080    44.4240 O.3          1 ASC130   0.0000
     9 C5          17.1540    31.8460    42.7610 C.3          1 ASC130   0.0000
    10 O5          17.5080    32.8860    43.6970 O.3          1 ASC130   0.0000
    11 C6          18.2000    30.7300    42.7490 C.3          1 ASC130   0.0000
    12 O6          19.4400    31.2930    42.2940 O.3          1 ASC130   0.0000
    13 H1          15.4800    30.6356    42.4461 H            1 ASC130   0.0000
    14 H2          17.1210    32.2498    41.8468 H            1 ASC130   0.0000
    15 H3          18.4994    32.8934    43.8278 H            1 ASC130   0.0000
    16 H4          17.9108    29.9998    42.1299 H            1 ASC130   0.0000
    17 H5          18.3128    30.3600    43.6712 H            1 ASC130   0.0000
    18 H6          19.9600    31.6317    43.0782 H            1 ASC130   0.0000
@<TRIPOS>BOND
     1    1    2       2
     2    2    3       1
     3    2    8       1
     4    3    4       2
     5    3    5       1
     6    5    6       2
     7    5    7       1
     8    7    8       1
     9    7    9       1
    10    9   10       1
    11    9   11       1
    12   11   12       1
    13    7   13       1
    14    9   14       1
    15   10   15       1
    16   11   16       1
    17   11   17       1
    18   12   18       1
@<TRIPOS>SUBSTRUCTURE
     1 ASC130      1 GROUP             4 A     ASC     0 **** ASC A 130
