@<TRIPOS>MOLECULE
5bps_EFO_1_ligand
  130   132     1     0     0
SMALL
NO_CHARGES


@<TRIPOS>ATOM
     1 C1A         30.4980    24.9840    32.5070 C.3          1 EFO101   0.0000
     2 C10         29.5430    24.6340    31.3490 C.3          1 EFO101   0.0000
     3 C11         30.2580    23.6290    30.3840 C.3          1 EFO101   0.0000
     4 C12         29.3100    23.0000    29.3280 C.3          1 EFO101   0.0000
     5 C1B         28.9190    24.0160    28.2300 C.3          1 EFO101   0.0000
     6 O37         31.3580    24.3010    29.7340 O.3          1 EFO101   0.0000
     7 C36         32.3600    23.4810    29.3120 C.2          1 EFO101   0.0000
     8 O36         32.3440    22.2610    29.4820 O.2          1 EFO101   0.0000
     9 C35         33.4370    24.0680    28.6410 C.2          1 EFO101   0.0000
    10 C34         33.4250    25.4470    28.4510 C.2          1 EFO101   0.0000
    11 C33         34.4630    26.1060    27.8020 C.3          1 EFO101   0.0000
    12 C3B         35.0680    27.0970    28.8090 C.3          1 EFO101   0.0000
    13 C32         33.9660    26.8720    26.5480 C.3          1 EFO101   0.0000
    14 O32         35.0480    27.6390    25.9950 O.3          1 EFO101   0.0000
    15 C31         33.3560    25.9670    25.4220 C.3          1 EFO101   0.0000
    16 C3A         34.3880    24.9910    24.8500 C.3          1 EFO101   0.0000
    17 C30         32.8110    26.7470    24.3660 C.2          1 EFO101   0.0000
    18 O30         33.4920    27.6010    23.7930 O.2          1 EFO101   0.0000
    19 C29         31.4850    26.5410    23.9560 C.3          1 EFO101   0.0000
    20 C2D         31.2190    27.2010    22.5840 C.3          1 EFO101   0.0000
    21 C28         30.5050    27.0530    25.0540 C.3          1 EFO101   0.0000
    22 O28         30.8110    28.4160    25.4040 O.3          1 EFO101   0.0000
    23 C27         29.0320    26.9050    24.6340 C.3          1 EFO101   0.0000
    24 C2C         28.1340    27.3640    25.8010 C.3          1 EFO101   0.0000
    25 C26         28.7410    25.5660    24.2440 C.2          1 EFO101   0.0000
    26 O26         29.1860    24.6280    24.9120 O.2          1 EFO101   0.0000
    27 C25         27.9400    25.2950    23.1070 C.3          1 EFO101   0.0000
    28 C2B         28.6770    24.2960    22.1970 C.3          1 EFO101   0.0000
    29 O25         27.7000    26.5020    22.3640 O.3          1 EFO101   0.0000
    30 C24         26.5680    24.7250    23.6230 C.3          1 EFO101   0.0000
    31 O24         25.8760    25.7090    24.4430 O.3          1 EFO101   0.0000
    32 C23         25.5780    24.1340    22.5590 C.3          1 EFO101   0.0000
    33 C2A         24.9600    25.1930    21.6350 C.3          1 EFO101   0.0000
    34 C22         24.4350    23.4110    23.2910 C.3          1 EFO101   0.0000
    35 C21         24.9340    22.5170    24.2470 C.2          1 EFO101   0.0000
    36 C20         24.4250    22.5280    25.5410 C.2          1 EFO101   0.0000
    37 C19         24.9060    21.6390    26.4960 C.2          1 EFO101   0.0000
    38 C18         24.3800    21.6690    27.7820 C.2          1 EFO101   0.0000
    39 C17         24.8260    20.7960    28.7810 C.3          1 EFO101   0.0000
    40 C1C         23.6150    20.3020    29.5960 C.3          1 EFO101   0.0000
    41 C1D         23.0580    18.9940    29.0350 C.3          1 EFO101   0.0000
    42 C16         25.7620    21.5390    29.7240 C.3          1 EFO101   0.0000
    43 C15         27.1520    21.6600    29.1170 C.3          1 EFO101   0.0000
    44 C13         28.0890    22.4330    30.0650 C.3          1 EFO101   0.0000
    45 O14         27.3990    23.5140    30.7610 O.3          1 EFO101   0.0000
    46 C8          28.1780    24.0820    31.8720 C.3          1 EFO101   0.0000
    47 O9          28.4210    23.0860    32.9210 O.3          1 EFO101   0.0000
    48 C7          27.3590    25.2610    32.4610 C.3          1 EFO101   0.0000
    49 C6          26.0690    24.7720    33.1670 C.3          1 EFO101   0.0000
    50 C5          26.3780    23.6790    34.1960 C.3          1 EFO101   0.0000
    51 C51         27.1330    24.2840    35.3950 C.3          1 EFO101   0.0000
    52 C4          27.1850    22.5470    33.4980 C.3          1 EFO101   0.0000
    53 C3          27.4240    21.3370    34.4250 C.3          1 EFO101   0.0000
    54 C2          28.1780    20.2160    33.6810 C.3          1 EFO101   0.0000
    55 C1          28.9380    19.3740    34.6920 C.3          1 EFO101   0.0000
    56 O2          27.2700    19.3550    32.9720 O.3          1 EFO101   0.0000
    57 H1A1        30.0479    25.6259    33.1278 H            1 EFO101   0.0000
    58 H1A2        30.7373    24.1506    33.0052 H            1 EFO101   0.0000
    59 H1A3        31.3284    25.4026    32.1393 H            1 EFO101   0.0000
    60 H4          29.3594    25.4735    30.8375 H            1 EFO101   0.0000
    61 H5          30.6357    22.8872    30.9381 H            1 EFO101   0.0000
    62 H6          29.7910    22.2396    28.8915 H            1 EFO101   0.0000
    63 H1B1        28.3099    23.5759    27.5702 H            1 EFO101   0.0000
    64 H1B2        28.4510    24.7947    28.6478 H            1 EFO101   0.0000
    65 H1B3        29.7432    24.3345    27.7618 H            1 EFO101   0.0000
    66 H10         34.1970    23.5111    28.3059 H            1 EFO101   0.0000
    67 H11         32.6487    25.9780    28.7906 H            1 EFO101   0.0000
    68 H12         35.1596    25.4418    27.5307 H            1 EFO101   0.0000
    69 H3B1        35.8216    27.5927    28.3772 H            1 EFO101   0.0000
    70 H3B2        34.3657    27.7463    29.1007 H            1 EFO101   0.0000
    71 H3B3        35.4104    26.5968    29.6043 H            1 EFO101   0.0000
    72 H16         33.2569    27.5126    26.8426 H            1 EFO101   0.0000
    73 H17         34.9248    27.7244    25.0063 H            1 EFO101   0.0000
    74 H18         32.6140    25.4310    25.8247 H            1 EFO101   0.0000
    75 H3A1        33.9611    24.4341    24.1375 H            1 EFO101   0.0000
    76 H3A2        35.1516    25.5047    24.4588 H            1 EFO101   0.0000
    77 H3A3        34.7253    24.3968    25.5802 H            1 EFO101   0.0000
    78 H22         31.3448    25.5561    23.8549 H            1 EFO101   0.0000
    79 H2D1        30.2694    27.0400    22.3152 H            1 EFO101   0.0000
    80 H2D2        31.3846    28.1850    22.6498 H            1 EFO101   0.0000
    81 H2D3        31.8310    26.8050    21.8994 H            1 EFO101   0.0000
    82 H26         30.6449    26.4922    25.8700 H            1 EFO101   0.0000
    83 H27         30.2913    29.0358    24.8160 H            1 EFO101   0.0000
    84 H28         28.8648    27.5052    23.8518 H            1 EFO101   0.0000
    85 H2C1        27.1734    27.2719    25.5386 H            1 EFO101   0.0000
    86 H2C2        28.3159    26.7971    26.6045 H            1 EFO101   0.0000
    87 H2C3        28.3305    28.3205    26.0165 H            1 EFO101   0.0000
    88 H2B1        28.1158    24.1011    21.3926 H            1 EFO101   0.0000
    89 H2B2        29.5494    24.6898    21.9074 H            1 EFO101   0.0000
    90 H2B3        28.8446    23.4480    22.6998 H            1 EFO101   0.0000
    91 H35         27.5912    26.2808    21.3949 H            1 EFO101   0.0000
    92 H36         26.7972    23.9686    24.2356 H            1 EFO101   0.0000
    93 H37         25.7005    26.5307    23.9007 H            1 EFO101   0.0000
    94 H38         26.0706    23.4684    21.9984 H            1 EFO101   0.0000
    95 H2A1        24.3428    24.7492    20.9853 H            1 EFO101   0.0000
    96 H2A2        24.4480    25.8550    22.1823 H            1 EFO101   0.0000
    97 H2A3        25.6867    25.6645    21.1355 H            1 EFO101   0.0000
    98 H42         23.8888    22.9044    22.6239 H            1 EFO101   0.0000
    99 H43         23.8589    24.0891    23.7474 H            1 EFO101   0.0000
   100 H44         25.6560    21.8711    23.9990 H            1 EFO101   0.0000
   101 H45         23.7077    23.1801    25.7866 H            1 EFO101   0.0000
   102 H46         25.6238    20.9841    26.2596 H            1 EFO101   0.0000
   103 H47         23.6637    22.3321    27.9994 H            1 EFO101   0.0000
   104 H48         25.3014    20.0187    28.3690 H            1 EFO101   0.0000
   105 H1C1        22.8984    20.9989    29.5679 H            1 EFO101   0.0000
   106 H1C2        23.8993    20.1543    30.5433 H            1 EFO101   0.0000
   107 H1D1        22.2756    18.7018    29.5850 H            1 EFO101   0.0000
   108 H1D2        22.7665    19.1345    28.0888 H            1 EFO101   0.0000
   109 H1D3        23.7675    18.2899    29.0642 H            1 EFO101   0.0000
   110 H54         25.8233    21.0384    30.5875 H            1 EFO101   0.0000
   111 H55         25.3974    22.4544    29.8945 H            1 EFO101   0.0000
   112 H56         27.0896    22.1476    28.2462 H            1 EFO101   0.0000
   113 H57         27.5237    20.7449    28.9608 H            1 EFO101   0.0000
   114 H58         28.4215    21.7902    30.7551 H            1 EFO101   0.0000
   115 H59         27.1061    25.8817    31.7188 H            1 EFO101   0.0000
   116 H60         27.9259    25.7488    33.1248 H            1 EFO101   0.0000
   117 H61         25.4410    24.4052    32.4807 H            1 EFO101   0.0000
   118 H62         25.6391    25.5456    33.6325 H            1 EFO101   0.0000
   119 H63         25.5138    23.2976    34.5240 H            1 EFO101   0.0000
   120 H64         27.3308    23.5652    36.0615 H            1 EFO101   0.0000
   121 H65         27.9902    24.6903    35.0785 H            1 EFO101   0.0000
   122 H66         26.5680    24.9893    35.8232 H            1 EFO101   0.0000
   123 H67         26.6268    22.2215    32.7348 H            1 EFO101   0.0000
   124 H68         26.5420    20.9859    34.7394 H            1 EFO101   0.0000
   125 H69         27.9662    21.6297    35.2126 H            1 EFO101   0.0000
   126 H70         28.8238    20.6223    33.0346 H            1 EFO101   0.0000
   127 H71         29.4295    18.6447    34.2161 H            1 EFO101   0.0000
   128 H72         29.5910    19.9510    35.1826 H            1 EFO101   0.0000
   129 H73         28.2937    18.9722    35.3427 H            1 EFO101   0.0000
   130 H74         27.7873    18.6404    32.5011 H            1 EFO101   0.0000
@<TRIPOS>BOND
     1    1    2       1
     2    2    3       1
     3    2   46       1
     4    3    4       1
     5    3    6       1
     6    4    5       1
     7    4   44       1
     8    6    7       1
     9    7    8       2
    10    7    9       1
    11    9   10       2
    12   10   11       1
    13   11   12       1
    14   11   13       1
    15   13   14       1
    16   13   15       1
    17   15   16       1
    18   15   17       1
    19   17   18       2
    20   17   19       1
    21   19   20       1
    22   19   21       1
    23   21   22       1
    24   21   23       1
    25   23   24       1
    26   23   25       1
    27   25   26       2
    28   25   27       1
    29   27   28       1
    30   27   29       1
    31   27   30       1
    32   30   31       1
    33   30   32       1
    34   32   33       1
    35   32   34       1
    36   34   35       1
    37   35   36       2
    38   36   37       1
    39   37   38       2
    40   38   39       1
    41   39   40       1
    42   39   42       1
    43   40   41       1
    44   42   43       1
    45   43   44       1
    46   44   45       1
    47   45   46       1
    48   46   47       1
    49   46   48       1
    50   47   52       1
    51   48   49       1
    52   49   50       1
    53   50   51       1
    54   50   52       1
    55   52   53       1
    56   53   54       1
    57   54   55       1
    58   54   56       1
    59    1   57       1
    60    1   58       1
    61    1   59       1
    62    2   60       1
    63    3   61       1
    64    4   62       1
    65    5   63       1
    66    5   64       1
    67    5   65       1
    68    9   66       1
    69   10   67       1
    70   11   68       1
    71   12   69       1
    72   12   70       1
    73   12   71       1
    74   13   72       1
    75   14   73       1
    76   15   74       1
    77   16   75       1
    78   16   76       1
    79   16   77       1
    80   19   78       1
    81   20   79       1
    82   20   80       1
    83   20   81       1
    84   21   82       1
    85   22   83       1
    86   23   84       1
    87   24   85       1
    88   24   86       1
    89   24   87       1
    90   28   88       1
    91   28   89       1
    92   28   90       1
    93   29   91       1
    94   30   92       1
    95   31   93       1
    96   32   94       1
    97   33   95       1
    98   33   96       1
    99   33   97       1
   100   34   98       1
   101   34   99       1
   102   35  100       1
   103   36  101       1
   104   37  102       1
   105   38  103       1
   106   39  104       1
   107   40  105       1
   108   40  106       1
   109   41  107       1
   110   41  108       1
   111   41  109       1
   112   42  110       1
   113   42  111       1
   114   43  112       1
   115   43  113       1
   116   44  114       1
   117   48  115       1
   118   48  116       1
   119   49  117       1
   120   49  118       1
   121   50  119       1
   122   51  120       1
   123   51  121       1
   124   51  122       1
   125   52  123       1
   126   53  124       1
   127   53  125       1
   128   54  126       1
   129   55  127       1
   130   55  128       1
   131   55  129       1
   132   56  130       1
@<TRIPOS>SUBSTRUCTURE
     1 EFO101      1 GROUP             4 B     EFO     0 **** EFO B 101
