@<TRIPOS>MOLECULE
1e6z_NGO_1_ligand
   27    28     1     0     0
SMALL
NO_CHARGES


@<TRIPOS>ATOM
     1 C1          19.1550    44.7050   102.0970 C.3          1 NGO999   0.0000
     2 C2          17.6770    44.5200   101.5080 C.3          1 NGO999   0.0000
     3 C3          16.9770    43.2110   101.9610 C.3          1 NGO999   0.0000
     4 C4          17.9610    42.0370   102.1460 C.3          1 NGO999   0.0000
     5 C5          19.2260    42.4230   102.9450 C.3          1 NGO999   0.0000
     6 C6          20.2620    41.3070   103.0500 C.3          1 NGO999   0.0000
     7 C7          17.7170    46.0290   103.0630 C.2          1 NGO999   0.0000
     8 C8          17.1640    47.1180   103.8800 C.3          1 NGO999   0.0000
     9 N2          16.9700    45.5370   102.0670 N.2          1 NGO999   0.0000
    10 O1          19.0100    45.6220   103.1570 O.3          1 NGO999   0.0000
    11 O3          15.9600    42.8720   101.0100 O.3          1 NGO999   0.0000
    12 O4          17.2910    40.9790   102.8150 O.3          1 NGO999   0.0000
    13 O5          19.9200    43.5060   102.3300 O.3          1 NGO999   0.0000
    14 O6          20.4510    40.6180   101.8140 O.3          1 NGO999   0.0000
    15 H1          19.6575    45.2017   101.3893 H            1 NGO999   0.0000
    16 H2          17.6797    44.5950   100.5108 H            1 NGO999   0.0000
    17 H3          16.5335    43.3851   102.8402 H            1 NGO999   0.0000
    18 H4          18.2426    41.7135   101.2426 H            1 NGO999   0.0000
    19 H5          18.9534    42.6973   103.8672 H            1 NGO999   0.0000
    20 H6          19.9571    40.6503   103.7398 H            1 NGO999   0.0000
    21 H7          21.1349    41.7053   103.3318 H            1 NGO999   0.0000
    22 H8          17.8288    47.3808   104.5792 H            1 NGO999   0.0000
    23 H9          16.9656    47.9052   103.2960 H            1 NGO999   0.0000
    24 H10         16.3212    46.8091   104.3208 H            1 NGO999   0.0000
    25 H11         15.2201    42.3838   101.4729 H            1 NGO999   0.0000
    26 H12         17.7593    40.7794   103.6757 H            1 NGO999   0.0000
    27 H13         21.1751    41.0662   101.2899 H            1 NGO999   0.0000
@<TRIPOS>BOND
     1    1    2       1
     2    1   10       1
     3    1   13       1
     4    2    3       1
     5    2    9       1
     6    3    4       1
     7    3   11       1
     8    4    5       1
     9    4   12       1
    10    5    6       1
    11    5   13       1
    12    6   14       1
    13    7    8       1
    14    7    9       2
    15    7   10       1
    16    1   15       1
    17    2   16       1
    18    3   17       1
    19    4   18       1
    20    5   19       1
    21    6   20       1
    22    6   21       1
    23    8   22       1
    24    8   23       1
    25    8   24       1
    26   11   25       1
    27   12   26       1
    28   14   27       1
@<TRIPOS>SUBSTRUCTURE
     1 NGO999      1 GROUP             4 A     NGO     0 **** NGO A 999
