@<TRIPOS>MOLECULE
4ere_0R2_1_ligand
   65    67     1     0     0
SMALL
NO_CHARGES


@<TRIPOS>ATOM
     1 CL1          6.8170    24.5610    22.6940 Cl           1 0R2201   0.0000
     2 C1           8.3220    25.0140    21.8320 C.ar         1 0R2201   0.0000
     3 C2           8.1530    25.8890    20.7410 C.ar         1 0R2201   0.0000
     4 C3           9.2580    26.2910    19.9530 C.ar         1 0R2201   0.0000
     5 C4           9.6140    24.5190    22.1620 C.ar         1 0R2201   0.0000
     6 C5          10.7110    24.9150    21.3830 C.ar         1 0R2201   0.0000
     7 C6          10.5380    25.7980    20.2830 C.ar         1 0R2201   0.0000
     8 C7          11.7560    26.2730    19.4860 C.3          1 0R2201   0.0000
     9 N1          11.6390    25.9590    18.0710 N.am         1 0R2201   0.0000
    10 C8          11.2760    24.5800    17.7880 C.3          1 0R2201   0.0000
    11 C9          12.8120    24.1200    17.4490 C.2          1 0R2201   0.0000
    12 O4          13.7910    24.8510    17.4610 O.2          1 0R2201   0.0000
    13 C11         11.9220    26.8180    17.0340 C.2          1 0R2201   0.0000
    14 O1          11.7930    26.4570    15.8880 O.2          1 0R2201   0.0000
    15 C12         12.4820    28.2390    17.3520 C.3          1 0R2201   0.0000
    16 C13         11.3600    29.2640    17.1030 C.3          1 0R2201   0.0000
    17 C14         11.9110    30.6820    16.8340 C.2          1 0R2201   0.0000
    18 O2          11.8950    31.5220    17.6840 O.co2        1 0R2201   0.0000
    19 O3          12.3700    30.8950    15.5950 O.co2        1 0R2201  -1.0000
    20 C15         13.0990    28.2900    18.7360 C.3          1 0R2201   0.0000
    21 C16         12.1450    27.7790    19.7870 C.3          1 0R2201   0.0000
    22 C17         12.5630    28.0520    21.2290 C.ar         1 0R2201   0.0000
    23 C18         13.9190    27.9980    21.6120 C.ar         1 0R2201   0.0000
    24 C19         14.2970    28.1450    22.9560 C.ar         1 0R2201   0.0000
    25 C20         13.3160    28.3540    23.9370 C.ar         1 0R2201   0.0000
    26 C21         11.9770    28.4190    23.5650 C.ar         1 0R2201   0.0000
    27 CL2         10.7840    28.6540    24.7730 Cl           1 0R2201   0.0000
    28 C22         11.5900    28.2790    22.2400 C.ar         1 0R2201   0.0000
    29 C10         10.2490    24.3790    16.5810 C.3          1 0R2201   0.0000
    30 C23          8.7940    24.7600    16.9540 C.3          1 0R2201   0.0000
    31 O5          12.8170    22.7390    17.1720 O.3          1 0R2201   0.0000
    32 C24         13.9950    21.9680    16.6390 C.3          1 0R2201   0.0000
    33 C25         13.4470    20.5590    16.5200 C.3          1 0R2201   0.0000
    34 C26         15.0750    22.0720    17.7190 C.3          1 0R2201   0.0000
    35 C27         14.2290    22.5700    15.2440 C.3          1 0R2201   0.0000
    36 H1           7.2396    26.2309    20.5201 H            1 0R2201   0.0000
    37 H2           9.1340    26.9114    19.1786 H            1 0R2201   0.0000
    38 H3           9.7381    23.8989    22.9366 H            1 0R2201   0.0000
    39 H4          11.6242    24.5725    21.6039 H            1 0R2201   0.0000
    40 H5          12.5241    25.7262    19.8192 H            1 0R2201   0.0000
    41 H6          10.9444    24.1247    18.6143 H            1 0R2201   0.0000
    42 H7          13.2103    28.4274    16.6931 H            1 0R2201   0.0000
    43 H8          10.7690    29.2961    17.9090 H            1 0R2201   0.0000
    44 H9          10.8264    28.9705    16.3099 H            1 0R2201   0.0000
    45 H10         13.3404    29.2367    18.9493 H            1 0R2201   0.0000
    46 H11         13.9244    27.7255    18.7446 H            1 0R2201   0.0000
    47 H12         11.3022    28.3005    19.6537 H            1 0R2201   0.0000
    48 H13         14.6220    27.8528    20.9158 H            1 0R2201   0.0000
    49 H14         15.2623    28.1009    23.2133 H            1 0R2201   0.0000
    50 H15         13.5774    28.4555    24.8969 H            1 0R2201   0.0000
    51 H16         10.6222    28.3381    21.9952 H            1 0R2201   0.0000
    52 H17         10.2659    23.4180    16.3049 H            1 0R2201   0.0000
    53 H18         10.5418    24.9511    15.8149 H            1 0R2201   0.0000
    54 H19          8.1984    24.6147    16.1640 H            1 0R2201   0.0000
    55 H20          8.4844    24.1890    17.7144 H            1 0R2201   0.0000
    56 H21          8.7602    25.7222    17.2244 H            1 0R2201   0.0000
    57 H22         14.1601    19.9526    16.1683 H            1 0R2201   0.0000
    58 H23         13.1515    20.2391    17.4202 H            1 0R2201   0.0000
    59 H24         12.6680    20.5562    15.8930 H            1 0R2201   0.0000
    60 H25         15.8912    21.5757    17.4231 H            1 0R2201   0.0000
    61 H26         15.3054    23.0335    17.8685 H            1 0R2201   0.0000
    62 H27         14.7339    21.6747    18.5709 H            1 0R2201   0.0000
    63 H28         15.0042    22.1119    14.8090 H            1 0R2201   0.0000
    64 H29         13.4100    22.4429    14.6845 H            1 0R2201   0.0000
    65 H30         14.4250    23.5467    15.3310 H            1 0R2201   0.0000
@<TRIPOS>BOND
     1    1    2       1
     2    2    3      ar
     3    2    5      ar
     4    3    4      ar
     5    4    7      ar
     6    5    6      ar
     7    6    7      ar
     8    7    8       1
     9    8    9       1
    10    8   21       1
    11    9   10       1
    12    9   13      am
    13   10   11       1
    14   10   29       1
    15   11   12       2
    16   11   31       1
    17   13   14       2
    18   13   15       1
    19   15   16       1
    20   15   20       1
    21   16   17       1
    22   17   18      ar
    23   17   19      ar
    24   20   21       1
    25   21   22       1
    26   22   23      ar
    27   22   28      ar
    28   23   24      ar
    29   24   25      ar
    30   25   26      ar
    31   26   27       1
    32   26   28      ar
    33   29   30       1
    34   31   32       1
    35   32   33       1
    36   32   34       1
    37   32   35       1
    38    3   36       1
    39    4   37       1
    40    5   38       1
    41    6   39       1
    42    8   40       1
    43   10   41       1
    44   15   42       1
    45   16   43       1
    46   16   44       1
    47   35   65       1
    48   20   45       1
    49   20   46       1
    50   21   47       1
    51   23   48       1
    52   24   49       1
    53   25   50       1
    54   28   51       1
    55   29   52       1
    56   29   53       1
    57   30   54       1
    58   30   55       1
    59   30   56       1
    60   33   57       1
    61   33   58       1
    62   33   59       1
    63   34   60       1
    64   34   61       1
    65   34   62       1
    66   35   63       1
    67   35   64       1
@<TRIPOS>SUBSTRUCTURE
     1 0R2201      1 GROUP             4 A     0R2     0 **** 0R2 A 201
