@<TRIPOS>MOLECULE
4ag5_ADP_2_ligand
   39    41     1     0     0
SMALL
NO_CHARGES


@<TRIPOS>ATOM
     1 PB          -7.6440    12.6740    21.3920 P.3          1 ADP1589   0.0000
     2 O1B         -8.0960    11.6360    22.3920 O.co2        1 ADP1589   0.0000
     3 O2B         -6.5820    12.0780    20.4850 O.co2        1 ADP1589  -1.0000
     4 O3B         -7.3110    14.0390    21.9430 O.co2        1 ADP1589  -1.0000
     5 PA          -9.1190    13.0570    18.9360 P.3          1 ADP1589   0.0000
     6 O1A         -8.1880    14.0610    18.3000 O.co2        1 ADP1589   0.0000
     7 O2A         -9.0850    11.5910    18.5630 O.co2        1 ADP1589  -1.0000
     8 O3A         -8.9700    13.0440    20.5500 O.3          1 ADP1589   0.0000
     9 O5'        -10.6030    13.6340    18.7680 O.3          1 ADP1589   0.0000
    10 C5'        -11.7040    12.7290    18.7940 C.3          1 ADP1589   0.0000
    11 C4'        -12.4730    12.9550    17.5030 C.3          1 ADP1589   0.0000
    12 O4'        -13.0870    14.2440    17.5220 O.3          1 ADP1589   0.0000
    13 C3'        -11.5260    12.9510    16.3080 C.3          1 ADP1589   0.0000
    14 O3'        -11.4380    11.6610    15.6870 O.3          1 ADP1589   0.0000
    15 C2'        -12.0950    13.9890    15.3640 C.3          1 ADP1589   0.0000
    16 O2'        -12.9180    13.3230    14.4000 O.3          1 ADP1589   0.0000
    17 C1'        -12.9720    14.8730    16.2380 C.3          1 ADP1589   0.0000
    18 N9         -12.3590    16.2130    16.4200 N.pl3        1 ADP1589   0.0000
    19 C8         -11.3280    16.4800    17.2370 C.2          1 ADP1589   0.0000
    20 N7         -10.9860    17.7930    17.2120 N.2          1 ADP1589   0.0000
    21 C5         -11.8170    18.3980    16.3560 C.ar         1 ADP1589   0.0000
    22 C6         -11.9920    19.7840    15.8680 C.ar         1 ADP1589   0.0000
    23 N6         -11.1760    20.7660    16.3220 N.pl3        1 ADP1589   0.0000
    24 N1         -12.9790    20.0140    14.9600 N.ar         1 ADP1589   0.0000
    25 C2         -13.7740    19.0140    14.5230 C.ar         1 ADP1589   0.0000
    26 N3         -13.6700    17.7280    14.9260 N.ar         1 ADP1589   0.0000
    27 C4         -12.7240    17.3590    15.8280 C.ar         1 ADP1589   0.0000
    28 H5'1       -12.2888    12.9179    19.5829 H            1 ADP1589   0.0000
    29 H5'2       -11.3756    11.7856    18.8407 H            1 ADP1589   0.0000
    30 H4'        -13.1691    12.2459    17.3905 H            1 ADP1589   0.0000
    31 H3'        -10.6156    13.2379    16.6059 H            1 ADP1589   0.0000
    32 H5         -10.5313    11.5478    15.2806 H            1 ADP1589   0.0000
    33 H2'        -11.3698    14.5171    14.9222 H            1 ADP1589   0.0000
    34 H7         -12.3625    13.0632    13.6101 H            1 ADP1589   0.0000
    35 H1'        -13.8775    14.9675    15.8243 H            1 ADP1589   0.0000
    36 H9         -10.8665    15.7926    17.7978 H            1 ADP1589   0.0000
    37 H10        -11.2917    21.7036    15.9942 H            1 ADP1589   0.0000
    38 H11        -10.4582    20.5530    16.9848 H            1 ADP1589   0.0000
    39 H12        -14.4860    19.2394    13.8580 H            1 ADP1589   0.0000
@<TRIPOS>BOND
     1    1    2      ar
     2    1    3      ar
     3    1    4      ar
     4    1    8       1
     5    5    6      ar
     6    5    7      ar
     7    5    8       1
     8    5    9       1
     9    9   10       1
    10   10   11       1
    11   11   12       1
    12   11   13       1
    13   12   17       1
    14   13   14       1
    15   13   15       1
    16   15   16       1
    17   15   17       1
    18   17   18       1
    19   18   19       1
    20   18   27       1
    21   19   20       2
    22   20   21       1
    23   21   22      ar
    24   21   27      ar
    25   22   23       1
    26   22   24      ar
    27   24   25      ar
    28   25   26      ar
    29   26   27      ar
    30   25   39       1
    31   23   38       1
    32   23   37       1
    33   10   28       1
    34   10   29       1
    35   11   30       1
    36   13   31       1
    37   14   32       1
    38   15   33       1
    39   16   34       1
    40   17   35       1
    41   19   36       1
@<TRIPOS>SUBSTRUCTURE
     1 ADP1589     1 GROUP             4 B     ADP     0 **** ADP B1589
