@<TRIPOS>MOLECULE
5ahw_CMP_5_ligand
   34    37     1     0     0
SMALL
NO_CHARGES


@<TRIPOS>ATOM
     1 P           15.9810   -13.5760    28.7050 P.3          1 CMP1148   0.0000
     2 O1P         16.2780   -13.6320    27.2110 O.2          1 CMP1148   0.0000
     3 O2P         17.0640   -14.1900    29.4630 O.3          1 CMP1148   0.0000
     4 O5'         14.5530   -14.1160    29.1080 O.3          1 CMP1148   0.0000
     5 C5'         13.8290   -13.7790    30.3170 C.3          1 CMP1148   0.0000
     6 C4'         13.9780   -12.2950    30.5030 C.3          1 CMP1148   0.0000
     7 O4'         13.4900   -11.8190    31.7450 O.3          1 CMP1148   0.0000
     8 C3'         15.3830   -11.8230    30.4770 C.3          1 CMP1148   0.0000
     9 O3'         15.8940   -12.0200    29.1660 O.3          1 CMP1148   0.0000
    10 C2'         15.2490   -10.3800    30.9840 C.3          1 CMP1148   0.0000
    11 O2'         14.7550    -9.4630    29.9980 O.3          1 CMP1148   0.0000
    12 C1'         14.1730   -10.6010    32.0600 C.3          1 CMP1148   0.0000
    13 N9          14.8840   -10.7390    33.3540 N.pl3        1 CMP1148   0.0000
    14 C8          15.1700   -11.8790    34.0110 C.2          1 CMP1148   0.0000
    15 N7          15.8890   -11.6290    35.1160 N.2          1 CMP1148   0.0000
    16 C5          16.0540   -10.3290    35.1870 C.ar         1 CMP1148   0.0000
    17 C6          16.6830    -9.3830    36.1260 C.ar         1 CMP1148   0.0000
    18 N6          17.2830    -9.8450    37.2140 N.pl3        1 CMP1148   0.0000
    19 N1          16.6420    -8.0730    35.8470 N.ar         1 CMP1148   0.0000
    20 C2          16.0450    -7.5850    34.7540 C.ar         1 CMP1148   0.0000
    21 N3          15.4590    -8.3860    33.8390 N.ar         1 CMP1148   0.0000
    22 C4          15.4300    -9.7330    34.0100 C.ar         1 CMP1148   0.0000
    23 H5'1        14.2171   -14.2661    31.0994 H            1 CMP1148   0.0000
    24 H5'2        12.8633   -14.0199    30.2200 H            1 CMP1148   0.0000
    25 H4'         13.4773   -11.8340    29.7704 H            1 CMP1148   0.0000
    26 H3'         15.9244   -12.3550    31.1281 H            1 CMP1148   0.0000
    27 H2'         16.1047   -10.0550    31.3867 H            1 CMP1148   0.0000
    28 H6          15.4321    -8.7436    29.8430 H            1 CMP1148   0.0000
    29 H1'         13.5340    -9.8322    32.0862 H            1 CMP1148   0.0000
    30 H8          14.8846   -12.7905    33.7149 H            1 CMP1148   0.0000
    31 H9          17.7122    -9.2099    37.8562 H            1 CMP1148   0.0000
    32 H10         17.3064   -10.8286    37.3926 H            1 CMP1148   0.0000
    33 H11         16.0324    -6.5955    34.6101 H            1 CMP1148   0.0000
    34 H2P         17.4904   -14.9081    28.9130 H            1 CMP1148   0.0000
@<TRIPOS>BOND
     1    1    2       2
     2    1    3       1
     3    1    4       1
     4    1    9       1
     5    4    5       1
     6    5    6       1
     7    6    7       1
     8    6    8       1
     9    7   12       1
    10    8    9       1
    11    8   10       1
    12   10   11       1
    13   10   12       1
    14   12   13       1
    15   13   14       1
    16   13   22       1
    17   14   15       2
    18   15   16       1
    19   16   17      ar
    20   16   22      ar
    21   17   18       1
    22   17   19      ar
    23   19   20      ar
    24   20   21      ar
    25   21   22      ar
    26   20   33       1
    27    5   23       1
    28    5   24       1
    29    6   25       1
    30    8   26       1
    31   10   27       1
    32   11   28       1
    33   12   29       1
    34   14   30       1
    35   18   31       1
    36   18   32       1
    37    3   34       1
@<TRIPOS>SUBSTRUCTURE
     1 CMP1148     1 GROUP             4 B     CMP     0 **** CMP B1148
