@<TRIPOS>MOLECULE
2okc_SAM_1_ligand
   50    52     1     0     0
SMALL
NO_CHARGES


@<TRIPOS>ATOM
     1 N           88.6290    53.4980   109.3240 N.4          1 SAM500   1.0000
     2 CA          87.2610    53.0680   109.5250 C.3          1 SAM500   0.0000
     3 C           86.4780    52.7290   108.2480 C.2          1 SAM500   0.0000
     4 O           86.9840    52.1730   107.2790 O.co2        1 SAM500   0.0000
     5 OXT         85.2860    52.9950   108.1920 O.co2        1 SAM500  -1.0000
     6 CB          86.5290    54.1540   110.2730 C.3          1 SAM500   0.0000
     7 CG          86.9670    54.1910   111.7230 C.3          1 SAM500   0.0000
     8 SD          85.8920    55.3250   112.6100 S.3          1 SAM500   1.0000
     9 CE          86.6190    56.9500   112.1950 C.3          1 SAM500   0.0000
    10 C5'         86.3690    55.1820   114.3640 C.3          1 SAM500   0.0000
    11 C4'         85.6400    54.0200   115.0490 C.3          1 SAM500   0.0000
    12 O4'         86.1090    53.8120   116.3820 O.3          1 SAM500   0.0000
    13 C3'         84.1170    54.1910   115.1280 C.3          1 SAM500   0.0000
    14 O3'         83.5210    53.2350   114.2670 O.3          1 SAM500   0.0000
    15 C2'         83.7480    54.0190   116.6070 C.3          1 SAM500   0.0000
    16 O2'         82.5630    53.2650   116.8910 O.3          1 SAM500   0.0000
    17 C1'         85.0060    53.3240   117.1400 C.3          1 SAM500   0.0000
    18 N9          85.2690    53.5040   118.5810 N.pl3        1 SAM500   0.0000
    19 C8          85.0180    54.6040   119.3760 C.2          1 SAM500   0.0000
    20 N7          85.4650    54.3140   120.6250 N.2          1 SAM500   0.0000
    21 C5          85.9900    53.0570   120.6140 C.ar         1 SAM500   0.0000
    22 C6          86.5630    52.2690   121.6100 C.ar         1 SAM500   0.0000
    23 N6          86.6740    52.7380   122.8530 N.pl3        1 SAM500   0.0000
    24 N1          87.0230    51.0060   121.2920 N.ar         1 SAM500   0.0000
    25 C2          86.8920    50.5150   120.0030 C.ar         1 SAM500   0.0000
    26 N3          86.3280    51.2810   119.0100 N.ar         1 SAM500   0.0000
    27 C4          85.8830    52.5380   119.3310 C.ar         1 SAM500   0.0000
    28 H1          88.6538    54.4921   109.2180 H            1 SAM500   0.0000
    29 H2          89.1812    53.2332   110.1145 H            1 SAM500   0.0000
    30 HA          87.2762    52.2521   110.1030 H            1 SAM500   0.0000
    31 HB1         85.5458    53.9766   110.2311 H            1 SAM500   0.0000
    32 HB2         86.7268    55.0370   109.8473 H            1 SAM500   0.0000
    33 HG1         87.9139    54.5071   111.7820 H            1 SAM500   0.0000
    34 HG2         86.8955    53.2764   112.1210 H            1 SAM500   0.0000
    35 HE1         86.0935    57.6741   112.6417 H            1 SAM500   0.0000
    36 HE2         87.5669    56.9819   112.5121 H            1 SAM500   0.0000
    37 HE3         86.5943    57.0830   111.2042 H            1 SAM500   0.0000
    38 H5'1        86.1380    56.0336   114.8345 H            1 SAM500   0.0000
    39 H5'2        87.3552    55.0264   114.4214 H            1 SAM500   0.0000
    40 H4'         85.8280    53.1892   114.5251 H            1 SAM500   0.0000
    41 H3'         83.8686    55.1117   114.8271 H            1 SAM500   0.0000
    42 H15         83.7800    52.3148   114.5605 H            1 SAM500   0.0000
    43 H2'         83.6697    54.9214   117.0307 H            1 SAM500   0.0000
    44 H17         82.7992    52.2986   116.9928 H            1 SAM500   0.0000
    45 H1'         84.9173    52.3440   116.9616 H            1 SAM500   0.0000
    46 H19         84.5862    55.4579   119.0855 H            1 SAM500   0.0000
    47 H20         87.0855    52.1709   123.5665 H            1 SAM500   0.0000
    48 H21         86.3457    53.6569   123.0719 H            1 SAM500   0.0000
    49 H22         87.2118    49.5913   119.7920 H            1 SAM500   0.0000
    50 H23         88.9967    53.0657   108.5007 H            1 SAM500   0.0000
@<TRIPOS>BOND
     1    1    2       1
     2    2    3       1
     3    2    6       1
     4    3    4      ar
     5    3    5      ar
     6    6    7       1
     7    7    8       1
     8    8    9       1
     9    8   10       1
    10   10   11       1
    11   11   12       1
    12   11   13       1
    13   12   17       1
    14   13   14       1
    15   13   15       1
    16   15   16       1
    17   15   17       1
    18   17   18       1
    19   18   19       1
    20   18   27       1
    21   19   20       2
    22   20   21       1
    23   21   22      ar
    24   21   27      ar
    25   22   23       1
    26   22   24      ar
    27   24   25      ar
    28   25   26      ar
    29   26   27      ar
    30    1   28       1
    31    1   29       1
    32    2   30       1
    33    1   50       1
    34    6   31       1
    35    6   32       1
    36    7   33       1
    37    7   34       1
    38    9   35       1
    39    9   36       1
    40    9   37       1
    41   10   38       1
    42   10   39       1
    43   11   40       1
    44   13   41       1
    45   14   42       1
    46   15   43       1
    47   16   44       1
    48   17   45       1
    49   19   46       1
    50   23   47       1
    51   23   48       1
    52   25   49       1
@<TRIPOS>SUBSTRUCTURE
     1 SAM500      1 GROUP             4 A     SAM     0 **** SAM A 500
