@<TRIPOS>MOLECULE
2idx_ATP_2_ligand
   43    45     1     0     0
SMALL
NO_CHARGES


@<TRIPOS>ATOM
     1 PG          46.0270    49.3640     5.7090 P.3          1 ATP606   0.0000
     2 O1G         45.0140    50.0950     4.8210 O.co2        1 ATP606   0.0000
     3 O2G         47.4640    49.6290     5.3330 O.co2        1 ATP606  -1.0000
     4 O3G         45.7340    49.4680     7.1910 O.co2        1 ATP606  -1.0000
     5 PB          44.9500    46.8420     6.1890 P.3          1 ATP606   0.0000
     6 O1B         44.4960    45.8510     5.1440 O.co2        1 ATP606   0.0000
     7 O2B         43.9210    47.6050     7.0110 O.co2        1 ATP606  -1.0000
     8 O3B         45.9290    47.8180     5.4040 O.3          1 ATP606   0.0000
     9 PA          46.5950    46.4880     8.4670 P.3          1 ATP606   0.0000
    10 O1A         47.9980    46.9350     8.1060 O.co2        1 ATP606   0.0000
    11 O2A         45.6810    47.4000     9.2400 O.co2        1 ATP606  -1.0000
    12 O3A         45.9190    45.9720     7.1160 O.3          1 ATP606   0.0000
    13 O5'         46.5880    45.0580     9.2320 O.3          1 ATP606   0.0000
    14 C5'         47.6270    44.0860     9.1610 C.3          1 ATP606   0.0000
    15 C4'         47.0050    42.7120     8.9430 C.3          1 ATP606   0.0000
    16 O4'         46.0280    42.3820     9.9410 O.3          1 ATP606   0.0000
    17 C3'         46.2550    42.6780     7.6390 C.3          1 ATP606   0.0000
    18 O3'         47.0800    42.2500     6.5540 O.3          1 ATP606   0.0000
    19 C2'         45.1200    41.7070     7.9150 C.3          1 ATP606   0.0000
    20 O2'         45.5550    40.3620     7.8260 O.3          1 ATP606   0.0000
    21 C1'         44.7880    41.8950     9.3740 C.3          1 ATP606   0.0000
    22 N9          43.7750    42.9380     9.6630 N.pl3        1 ATP606   0.0000
    23 C8          43.6560    44.1110     9.0130 C.2          1 ATP606   0.0000
    24 N7          42.7080    44.8860     9.5720 N.2          1 ATP606   0.0000
    25 C5          42.1910    44.2110    10.6110 C.ar         1 ATP606   0.0000
    26 C6          41.1370    44.4680    11.6190 C.ar         1 ATP606   0.0000
    27 N6          40.4390    45.6320    11.6040 N.pl3        1 ATP606   0.0000
    28 N1          40.9210    43.5040    12.5560 N.ar         1 ATP606   0.0000
    29 C2          41.6160    42.3480    12.5560 C.ar         1 ATP606   0.0000
    30 N3          42.5870    42.0610    11.6650 N.ar         1 ATP606   0.0000
    31 C4          42.9090    42.9280    10.6780 C.ar         1 ATP606   0.0000
    32 H5'1        48.1466    44.0873    10.0154 H            1 ATP606   0.0000
    33 H5'2        48.2376    44.3026     8.3992 H            1 ATP606   0.0000
    34 H4'         47.7235    42.0165     8.9345 H            1 ATP606   0.0000
    35 H3'         45.8821    43.5845     7.4413 H            1 ATP606   0.0000
    36 H5          46.6942    41.4212     6.1487 H            1 ATP606   0.0000
    37 H2'         44.3296    41.8820     7.3280 H            1 ATP606   0.0000
    38 H7          45.4419    40.0365     6.8873 H            1 ATP606   0.0000
    39 H1'         44.5271    41.0245     9.7914 H            1 ATP606   0.0000
    40 H9          44.2018    44.3729     8.2171 H            1 ATP606   0.0000
    41 H10         39.7288    45.7980    12.2881 H            1 ATP606   0.0000
    42 H11         40.6350    46.3236    10.9088 H            1 ATP606   0.0000
    43 H12         41.3995    41.6664    13.2549 H            1 ATP606   0.0000
@<TRIPOS>BOND
     1    1    2      ar
     2    1    3      ar
     3    1    4      ar
     4    1    8       1
     5    5    6      ar
     6    5    7      ar
     7    5    8       1
     8    5   12       1
     9    9   10      ar
    10    9   11      ar
    11    9   12       1
    12    9   13       1
    13   13   14       1
    14   14   15       1
    15   15   16       1
    16   15   17       1
    17   16   21       1
    18   17   18       1
    19   17   19       1
    20   19   20       1
    21   19   21       1
    22   21   22       1
    23   22   23       1
    24   22   31       1
    25   23   24       2
    26   24   25       1
    27   25   26      ar
    28   25   31      ar
    29   26   27       1
    30   26   28      ar
    31   28   29      ar
    32   29   30      ar
    33   30   31      ar
    34   29   43       1
    35   27   42       1
    36   27   41       1
    37   23   40       1
    38   14   32       1
    39   14   33       1
    40   15   34       1
    41   17   35       1
    42   18   36       1
    43   19   37       1
    44   20   38       1
    45   21   39       1
@<TRIPOS>SUBSTRUCTURE
     1 ATP606      1 GROUP             4 B     ATP     0 **** ATP B 606
