@<TRIPOS>MOLECULE
3fx4_FX4_1_ligand
   39    40     1     0     0
SMALL
NO_CHARGES


@<TRIPOS>ATOM
     1 O1          -5.1340   -34.5760    -7.0450 O.3          1 FX4401   0.0000
     2 C2          -4.0520   -34.1670    -6.5780 C.2          1 FX4401   0.0000
     3 O3          -3.6510   -34.5350    -5.4540 O.3          1 FX4401   0.0000
     4 C4          -3.3040   -33.3190    -7.3010 C.2          1 FX4401   0.0000
     5 N5          -2.1170   -32.8580    -6.8020 N.pl3        1 FX4401   0.0000
     6 C6          -0.9260   -33.3820    -7.1270 C.2          1 FX4401   0.0000
     7 O10         -0.7570   -34.3600    -7.9340 O.2          1 FX4401   0.0000
     8 S7           0.3920   -32.5890    -6.3270 S.3          1 FX4401   0.0000
     9 C9          -2.0460   -31.8330    -5.9340 C.2          1 FX4401   0.0000
    10 O11         -3.0720   -31.2000    -5.5050 O.3          1 FX4401   0.0000
    11 C8          -0.6650   -31.4840    -5.5110 C.2          1 FX4401   0.0000
    12 C12         -0.1940   -30.4380    -4.5690 C.3          1 FX4401   0.0000
    13 C13          1.2410   -30.2090    -4.2750 C.ar         1 FX4401   0.0000
    14 C14          2.1100   -31.2190    -3.8440 C.ar         1 FX4401   0.0000
    15 C15          3.4630   -30.9520    -3.5930 C.ar         1 FX4401   0.0000
    16 C16          3.9720   -29.6630    -3.7670 C.ar         1 FX4401   0.0000
    17 O24          5.2910   -29.3680    -3.5230 O.3          1 FX4401   0.0000
    18 C25          6.2540   -29.3370    -4.5780 C.3          1 FX4401   0.0000
    19 C18          1.7070   -28.9120    -4.4650 C.ar         1 FX4401   0.0000
    20 C17          3.0440   -28.5950    -4.2240 C.ar         1 FX4401   0.0000
    21 O19          3.5040   -27.3210    -4.4010 O.3          1 FX4401   0.0000
    22 C20          2.6000   -26.2210    -4.2850 C.3          1 FX4401   0.0000
    23 C21          2.3390   -25.7310    -5.6830 C.2          1 FX4401   0.0000
    24 O22          2.0400   -26.5650    -6.5590 O.co2        1 FX4401   0.0000
    25 O23          2.4610   -24.5180    -5.9190 O.co2        1 FX4401  -1.0000
    26 H1          -5.6983   -35.2108    -6.5172 H            1 FX4401   0.0000
    27 H2          -2.7805   -34.1953    -5.0978 H            1 FX4401   0.0000
    28 H3          -3.6146   -33.0242    -8.2047 H            1 FX4401   0.0000
    29 H4          -2.9596   -30.4447    -4.8594 H            1 FX4401   0.0000
    30 H5          -0.6269   -30.6417    -3.6909 H            1 FX4401   0.0000
    31 H6          -0.5459   -29.5706    -4.9208 H            1 FX4401   0.0000
    32 H7           1.7594   -32.1463    -3.7131 H            1 FX4401   0.0000
    33 H8           4.0670   -31.6882    -3.2878 H            1 FX4401   0.0000
    34 H9           7.1516   -29.1050    -4.2032 H            1 FX4401   0.0000
    35 H10          6.2976   -30.2349    -5.0160 H            1 FX4401   0.0000
    36 H11          5.9868   -28.6494    -5.2531 H            1 FX4401   0.0000
    37 H12          1.0777   -28.2003    -4.7772 H            1 FX4401   0.0000
    38 H13          3.0104   -25.4935    -3.7352 H            1 FX4401   0.0000
    39 H14          1.7460   -26.5195    -3.8588 H            1 FX4401   0.0000
@<TRIPOS>BOND
     1    1    2       1
     2    2    3       1
     3    2    4       2
     4    4    5       1
     5    5    6       1
     6    5    9       1
     7    6    7       2
     8    6    8       1
     9    8   11       1
    10    9   10       1
    11    9   11       2
    12   11   12       1
    13   12   13       1
    14   13   14      ar
    15   13   19      ar
    16   14   15      ar
    17   15   16      ar
    18   16   17       1
    19   16   20      ar
    20   17   18       1
    21   19   20      ar
    22   20   21       1
    23   21   22       1
    24   22   23       1
    25   23   24      ar
    26   23   25      ar
    27    1   26       1
    28    3   27       1
    29    4   28       1
    30   10   29       1
    31   12   30       1
    32   12   31       1
    33   14   32       1
    34   15   33       1
    35   18   34       1
    36   18   35       1
    37   18   36       1
    38   19   37       1
    39   22   38       1
    40   22   39       1
@<TRIPOS>SUBSTRUCTURE
     1 FX4401      1 GROUP             4 A     FX4     0 **** FX4 A 401
