@<TRIPOS>MOLECULE
4hzp_COA_1_ligand
   47    46     1     0     0
SMALL
NO_CHARGES


@<TRIPOS>ATOM
     1 O5B         35.9840    12.5150    -2.2790 O.co2        1 COA401   0.0000
     2 P1A         34.7790    13.3670    -2.9080 P.3          1 COA401   0.0000
     3 O1A         33.4230    12.7010    -2.7880 O.co2        1 COA401  -1.0000
     4 O2A         35.0940    13.8470    -4.3110 O.co2        1 COA401  -1.0000
     5 O3A         34.5760    14.7560    -2.1190 O.3          1 COA401   0.0000
     6 P2A         35.3560    15.1970    -0.8030 P.3          1 COA401   0.0000
     7 O4A         34.8310    16.6120    -0.5410 O.co2        1 COA401   0.0000
     8 O5A         36.8130    15.0640    -1.0170 O.co2        1 COA401  -1.0000
     9 O6A         34.8570    14.1580     0.3380 O.3          1 COA401   0.0000
    10 CBP         33.9030    14.0330     2.5590 C.3          1 COA401   0.0000
    11 CCP         33.7040    14.4290     1.0860 C.3          1 COA401   0.0000
    12 CDP         34.4520    12.6110     2.6890 C.3          1 COA401   0.0000
    13 CEP         32.5110    14.0360     3.2370 C.3          1 COA401   0.0000
    14 CAP         34.7780    15.0910     3.2250 C.3          1 COA401   0.0000
    15 OAP         34.2290    16.3690     2.9620 O.3          1 COA401   0.0000
    16 C9P         34.9340    14.9750     4.7260 C.2          1 COA401   0.0000
    17 O9P         35.8160    13.9760     5.1990 O.2          1 COA401   0.0000
    18 N8P         34.2450    15.8130     5.5510 N.am         1 COA401   0.0000
    19 C7P         34.4360    15.8850     6.9860 C.3          1 COA401   0.0000
    20 C6P         33.2530    15.2930     7.7680 C.3          1 COA401   0.0000
    21 C5P         33.5640    15.2570     9.2150 C.2          1 COA401   0.0000
    22 O5P         34.7080    14.9040     9.6330 O.2          1 COA401   0.0000
    23 N4P         32.6460    15.5990    10.0840 N.am         1 COA401   0.0000
    24 C3P         32.9680    15.6940    11.5350 C.3          1 COA401   0.0000
    25 C2P         33.0540    14.3350    12.1980 C.3          1 COA401   0.0000
    26 S1P         31.4890    13.4080    12.0160 S.3          1 COA401   0.0000
    27 HCP1        32.9380    13.9095     0.7074 H            1 COA401   0.0000
    28 HCP2        33.5017    15.4069     1.0339 H            1 COA401   0.0000
    29 HDP1        34.5692    12.3861     3.6563 H            1 COA401   0.0000
    30 HDP2        33.8107    11.9667     2.2723 H            1 COA401   0.0000
    31 HDP3        35.3349    12.5507     2.2234 H            1 COA401   0.0000
    32 HEP1        32.6083    13.7814     4.1991 H            1 COA401   0.0000
    33 HEP2        32.1110    14.9503     3.1729 H            1 COA401   0.0000
    34 HEP3        31.9147    13.3783     2.7768 H            1 COA401   0.0000
    35 HAP         35.6877    15.0501     2.8118 H            1 COA401   0.0000
    36 H10         34.7954    17.0705     3.3945 H            1 COA401   0.0000
    37 H8P         33.5631    16.4177     5.1394 H            1 COA401   0.0000
    38 H7P1        34.5452    16.8441     7.2472 H            1 COA401   0.0000
    39 H7P2        35.2642    15.3781     7.2250 H            1 COA401   0.0000
    40 H6P1        33.0755    14.3634     7.4450 H            1 COA401   0.0000
    41 H6P2        32.4419    15.8585     7.6183 H            1 COA401   0.0000
    42 H4P         31.7179    15.7987     9.7697 H            1 COA401   0.0000
    43 H3P1        32.2539    16.2277    11.9881 H            1 COA401   0.0000
    44 H3P2        33.8476    16.1582    11.6389 H            1 COA401   0.0000
    45 H2P1        33.2481    14.4589    13.1711 H            1 COA401   0.0000
    46 H2P2        33.7937    13.8120    11.7745 H            1 COA401   0.0000
    47 H1P         31.6623    12.5547    11.5242 H            1 COA401   0.0000
@<TRIPOS>BOND
     1    1    2      ar
     2    2    3      ar
     3    2    4      ar
     4    2    5       1
     5    5    6       1
     6    6    7      ar
     7    6    8      ar
     8    6    9       1
     9    9   11       1
    10   10   11       1
    11   10   12       1
    12   10   13       1
    13   10   14       1
    14   14   15       1
    15   14   16       1
    16   16   17       2
    17   16   18      am
    18   18   19       1
    19   19   20       1
    20   20   21       1
    21   21   22       2
    22   21   23      am
    23   23   24       1
    24   24   25       1
    25   25   26       1
    26   26   47       1
    27   25   46       1
    28   25   45       1
    29   11   27       1
    30   11   28       1
    31   12   29       1
    32   12   30       1
    33   12   31       1
    34   13   32       1
    35   13   33       1
    36   13   34       1
    37   14   35       1
    38   15   36       1
    39   18   37       1
    40   19   38       1
    41   19   39       1
    42   20   40       1
    43   20   41       1
    44   23   42       1
    45   24   43       1
    46   24   44       1
@<TRIPOS>SUBSTRUCTURE
     1 COA401      1 GROUP             4 A     COA     0 **** COA A 401
