@<TRIPOS>MOLECULE
3e6y_CW1_2_ligand
   98   103     1     0     0
SMALL
NO_CHARGES


@<TRIPOS>ATOM
     1 OAH        -20.1270   -41.1870    -1.0470 O.2          1 CW1261   0.0000
     2 CAL        -19.0120   -41.6180    -0.7090 C.2          1 CW1261   0.0000
     3 OAX        -18.8180   -42.4410     0.3790 O.3          1 CW1261   0.0000
     4 CAN        -18.7510   -41.6920     1.6430 C.3          1 CW1261   0.0000
     5 CAQ        -17.8730   -42.3950     2.6730 C.3          1 CW1261   0.0000
     6 CBR        -16.3740   -42.1320     2.3040 C.3          1 CW1261   0.0000
     7 CAG        -15.6810   -40.9590     3.0460 C.3          1 CW1261   0.0000
     8 OBC        -15.4800   -43.1020     1.4860 O.3          1 CW1261   0.0000
     9 CBT        -14.7380   -43.9510     2.4020 C.3          1 CW1261   0.0000
    10 CBK        -13.2560   -44.3540     2.1470 C.3          1 CW1261   0.0000
    11 OAY        -13.2190   -45.6580     1.6500 O.3          1 CW1261   0.0000
    12 CAT        -12.3800   -43.6160     1.2240 C.3          1 CW1261   0.0000
    13 OAV        -11.1790   -43.4150     2.0100 O.3          1 CW1261   0.0000
    14 CAA        -11.4470   -42.4970     3.0420 C.3          1 CW1261   0.0000
    15 OBB        -14.7120   -43.2400     3.5910 O.3          1 CW1261   0.0000
    16 CBM        -16.0810   -43.0040     3.6540 C.3          1 CW1261   0.0000
    17 OAZ        -16.5150   -44.3830     3.6950 O.3          1 CW1261   0.0000
    18 CBN        -15.6290   -45.0810     2.7920 C.3          1 CW1261   0.0000
    19 CBI        -14.7800   -46.1390     3.5050 C.3          1 CW1261   0.0000
    20 OAI        -15.6390   -47.1550     4.0200 O.3          1 CW1261   0.0000
    21 CBL        -13.7950   -46.7240     2.4990 C.3          1 CW1261   0.0000
    22 OBA        -14.5710   -47.6260     1.6770 O.3          1 CW1261   0.0000
    23 CBQ        -13.7840   -48.4450     0.7370 C.3          1 CW1261   0.0000
    24 CBF        -13.7980   -47.7670    -0.6540 C.2          1 CW1261   0.0000
    25 CBD        -14.8090   -47.2300    -1.4750 C.2          1 CW1261   0.0000
    26 CBG        -16.3330   -47.2090    -1.1720 C.3          1 CW1261   0.0000
    27 CAD        -16.7970   -45.7320    -0.9840 C.3          1 CW1261   0.0000
    28 CAC        -17.0880   -47.9390    -2.3050 C.3          1 CW1261   0.0000
    29 CAO        -14.2350   -46.5580    -2.7370 C.3          1 CW1261   0.0000
    30 CAP        -12.8130   -46.2890    -2.3290 C.3          1 CW1261   0.0000
    31 CBO        -12.4720   -47.4980    -1.3930 C.3          1 CW1261   0.0000
    32 CAF        -11.3450   -47.0580    -0.4240 C.3          1 CW1261   0.0000
    33 CAM        -12.0330   -48.6260    -2.1940 C.2          1 CW1261   0.0000
    34 CBE        -12.5190   -49.9480    -2.3690 C.2          1 CW1261   0.0000
    35 CBS        -12.0330   -51.0490    -3.3020 C.3          1 CW1261   0.0000
    36 CAU        -10.6320   -51.3980    -2.9870 C.3          1 CW1261   0.0000
    37 OAW         -9.8640   -51.6260    -4.1390 O.3          1 CW1261   0.0000
    38 CAB         -8.7920   -52.4040    -3.6320 C.3          1 CW1261   0.0000
    39 OAK        -12.0740   -50.6730    -4.6520 O.3          1 CW1261   0.0000
    40 CAS        -12.9260   -52.2740    -3.1270 C.3          1 CW1261   0.0000
    41 CAR        -14.1960   -51.7510    -2.4820 C.3          1 CW1261   0.0000
    42 CBP        -13.7670   -50.5400    -1.6480 C.3          1 CW1261   0.0000
    43 CBH        -13.6310   -50.8750    -0.1130 C.3          1 CW1261   0.0000
    44 CAE        -12.2250   -51.0910     0.4410 C.3          1 CW1261   0.0000
    45 CBJ        -14.4220   -49.8430     0.7090 C.3          1 CW1261   0.0000
    46 OAJ        -14.7070   -50.3100     2.0460 O.3          1 CW1261   0.0000
    47 HAL        -18.2157   -41.3546    -1.2535 H            1 CW1261   0.0000
    48 HAN1       -19.6750   -41.6003     2.0141 H            1 CW1261   0.0000
    49 HAN2       -18.3731   -40.7841     1.4615 H            1 CW1261   0.0000
    50 HAQ1       -18.0570   -43.3778     2.6595 H            1 CW1261   0.0000
    51 HAQ2       -18.0653   -42.0324     3.5849 H            1 CW1261   0.0000
    52 HAG1       -14.7335   -40.8816     2.7357 H            1 CW1261   0.0000
    53 HAG2       -16.1667   -40.1071     2.8498 H            1 CW1261   0.0000
    54 HAG3       -15.6961   -41.1322     4.0308 H            1 CW1261   0.0000
    55 HBK        -12.7992   -44.3669     3.0365 H            1 CW1261   0.0000
    56 HAT1       -12.7887   -42.7420     0.9613 H            1 CW1261   0.0000
    57 HAT2       -12.1872   -44.1539     0.4033 H            1 CW1261   0.0000
    58 HAA1       -10.6199   -42.3563     3.5861 H            1 CW1261   0.0000
    59 HAA2       -11.7377   -41.6259     2.6461 H            1 CW1261   0.0000
    60 HAA3       -12.1739   -42.8563     3.6273 H            1 CW1261   0.0000
    61 HBM        -16.3369   -42.5068     4.4830 H            1 CW1261   0.0000
    62 HBN        -16.1180   -45.4605     2.0066 H            1 CW1261   0.0000
    63 HBI        -14.2770   -45.7132     4.2571 H            1 CW1261   0.0000
    64 HAI        -16.1429   -47.5786     3.2672 H            1 CW1261   0.0000
    65 HBL        -13.0687   -47.2223     2.9725 H            1 CW1261   0.0000
    66 HBQ        -12.8417   -48.5151     1.0642 H            1 CW1261   0.0000
    67 HBG        -16.4924   -47.7020    -0.3167 H            1 CW1261   0.0000
    68 HAD1       -17.7776   -45.7129    -0.7887 H            1 CW1261   0.0000
    69 HAD2       -16.2973   -45.3200    -0.2221 H            1 CW1261   0.0000
    70 HAD3       -16.6137   -45.2160    -1.8207 H            1 CW1261   0.0000
    71 HAC1       -18.0693   -47.9273    -2.1131 H            1 CW1261   0.0000
    72 HAC2       -16.9128   -47.4766    -3.1742 H            1 CW1261   0.0000
    73 HAC3       -16.7706   -48.8856    -2.3611 H            1 CW1261   0.0000
    74 HAO1       -14.7191   -45.7089    -2.9486 H            1 CW1261   0.0000
    75 HAO2       -14.2768   -47.1710    -3.5260 H            1 CW1261   0.0000
    76 HAP1       -12.7397   -45.4222    -1.8357 H            1 CW1261   0.0000
    77 HAP2       -12.2089   -46.2712    -3.1257 H            1 CW1261   0.0000
    78 HAF1       -10.5053   -46.8942    -0.9418 H            1 CW1261   0.0000
    79 HAF2       -11.6173   -46.2173     0.0441 H            1 CW1261   0.0000
    80 HAF3       -11.1854   -47.7786     0.2508 H            1 CW1261   0.0000
    81 HAM        -11.2162   -48.4306    -2.7368 H            1 CW1261   0.0000
    82 HAU1       -10.6258   -52.2271    -2.4279 H            1 CW1261   0.0000
    83 HAU2       -10.2219   -50.6454    -2.4717 H            1 CW1261   0.0000
    84 HAB1        -8.1649   -52.6328    -4.3766 H            1 CW1261   0.0000
    85 HAB2        -8.3031   -51.8824    -2.9328 H            1 CW1261   0.0000
    86 HAB3        -9.1522   -53.2454    -3.2291 H            1 CW1261   0.0000
    87 HAK        -12.4216   -49.7384    -4.7273 H            1 CW1261   0.0000
    88 HAS1       -12.4842   -52.9485    -2.5354 H            1 CW1261   0.0000
    89 HAS2       -13.1285   -52.6900    -4.0135 H            1 CW1261   0.0000
    90 HAR1       -14.6038   -52.4514    -1.8961 H            1 CW1261   0.0000
    91 HAR2       -14.8554   -51.4767    -3.1820 H            1 CW1261   0.0000
    92 HBP        -14.4962   -49.8608    -1.7307 H            1 CW1261   0.0000
    93 HBH        -14.1077   -51.7445     0.0161 H            1 CW1261   0.0000
    94 HAE1       -12.2795   -51.2945     1.4186 H            1 CW1261   0.0000
    95 HAE2       -11.7931   -51.8569    -0.0353 H            1 CW1261   0.0000
    96 HAE3       -11.6814   -50.2632     0.3026 H            1 CW1261   0.0000
    97 HBJ        -15.3061   -49.7391     0.2534 H            1 CW1261   0.0000
    98 HAJ        -15.6291   -50.0260     2.3088 H            1 CW1261   0.0000
@<TRIPOS>BOND
     1    1    2       2
     2    2    3       1
     3    3    4       1
     4    4    5       1
     5    5    6       1
     6    6    7       1
     7    6    8       1
     8    6   16       1
     9    8    9       1
    10    9   10       1
    11    9   15       1
    12    9   18       1
    13   10   11       1
    14   10   12       1
    15   11   21       1
    16   12   13       1
    17   13   14       1
    18   15   16       1
    19   16   17       1
    20   17   18       1
    21   18   19       1
    22   19   20       1
    23   19   21       1
    24   21   22       1
    25   22   23       1
    26   23   24       1
    27   23   45       1
    28   24   25       2
    29   24   31       1
    30   25   26       1
    31   25   29       1
    32   26   27       1
    33   26   28       1
    34   29   30       1
    35   30   31       1
    36   31   32       1
    37   31   33       1
    38   33   34       2
    39   34   35       1
    40   34   42       1
    41   35   36       1
    42   35   39       1
    43   35   40       1
    44   36   37       1
    45   37   38       1
    46   40   41       1
    47   41   42       1
    48   42   43       1
    49   43   44       1
    50   43   45       1
    51   45   46       1
    52    2   47       1
    53    4   48       1
    54    4   49       1
    55    5   50       1
    56    5   51       1
    57    7   52       1
    58    7   53       1
    59    7   54       1
    60   10   55       1
    61   12   56       1
    62   12   57       1
    63   14   58       1
    64   14   59       1
    65   14   60       1
    66   16   61       1
    67   18   62       1
    68   19   63       1
    69   20   64       1
    70   21   65       1
    71   23   66       1
    72   26   67       1
    73   27   68       1
    74   27   69       1
    75   27   70       1
    76   28   71       1
    77   28   72       1
    78   28   73       1
    79   29   74       1
    80   29   75       1
    81   30   76       1
    82   30   77       1
    83   32   78       1
    84   32   79       1
    85   32   80       1
    86   33   81       1
    87   36   82       1
    88   36   83       1
    89   38   84       1
    90   38   85       1
    91   38   86       1
    92   39   87       1
    93   40   88       1
    94   40   89       1
    95   41   90       1
    96   41   91       1
    97   42   92       1
    98   43   93       1
    99   44   94       1
   100   44   95       1
   101   44   96       1
   102   45   97       1
   103   46   98       1
@<TRIPOS>SUBSTRUCTURE
     1 CW1261      1 GROUP             4 B     CW1     0 **** CW1 B 261
