@<TRIPOS>MOLECULE
4dxd_9PC_1_ligand
   31    33     1     0     0
SMALL
NO_CHARGES


@<TRIPOS>ATOM
     1 C11        -11.1610    36.1750    16.8720 C.ar         1 9PC402   0.0000
     2 C12        -10.8750    37.4870    16.5310 C.ar         1 9PC402   0.0000
     3 N          -18.1270    45.6960    18.9560 N.am         1 9PC402   0.0000
     4 C13        -15.4390    44.2120    18.8750 C.ar         1 9PC402   0.0000
     5 C1         -15.6880    45.5480    19.1890 C.ar         1 9PC402   0.0000
     6 C2         -14.6860    46.4970    18.9940 C.ar         1 9PC402   0.0000
     7 C3         -13.4300    46.1210    18.4750 C.ar         1 9PC402   0.0000
     8 F1         -16.4020    43.3010    19.0800 F            1 9PC402   0.0000
     9 C          -17.0480    45.9660    19.7010 C.2          1 9PC402   0.0000
    10 O          -17.1430    46.5390    20.7700 O.2          1 9PC402   0.0000
    11 C5         -14.2060    43.8160    18.3550 C.ar         1 9PC402   0.0000
    12 C4         -13.1940    44.7820    18.1490 C.ar         1 9PC402   0.0000
    13 F          -14.9530    47.7850    19.2820 F            1 9PC402   0.0000
    14 O1         -14.0180    42.4800    18.0710 O.3          1 9PC402   0.0000
    15 C6         -12.7250    42.0000    17.6900 C.3          1 9PC402   0.0000
    16 C7         -12.5440    40.4990    17.6310 C.2          1 9PC402   0.0000
    17 S          -13.5630    39.4700    18.6260 S.3          1 9PC402   0.0000
    18 C9         -12.6600    38.1850    17.9940 C.ar         1 9PC402   0.0000
    19 N2         -12.9260    36.8850    18.3000 N.ar         1 9PC402   0.0000
    20 C10        -12.1970    35.8860    17.7610 C.ar         1 9PC402   0.0000
    21 CL         -10.1730    34.8830    16.1490 Cl           1 9PC402   0.0000
    22 C8         -11.6310    38.5000    17.1130 C.ar         1 9PC402   0.0000
    23 N1         -11.6020    39.8370    16.9240 N.2          1 9PC402   0.0000
    24 H1         -10.1439    37.7006    15.8831 H            1 9PC402   0.0000
    25 H2         -19.0356    45.9639    19.2764 H            1 9PC402   0.0000
    26 H3         -18.0244    45.2264    18.0791 H            1 9PC402   0.0000
    27 H4         -12.7141    46.8062    18.3412 H            1 9PC402   0.0000
    28 H5         -12.3101    44.5076    17.7704 H            1 9PC402   0.0000
    29 H6         -12.0632    42.3588    18.3483 H            1 9PC402   0.0000
    30 H7         -12.5226    42.3650    16.7812 H            1 9PC402   0.0000
    31 H8         -12.3995    34.9361    17.9991 H            1 9PC402   0.0000
@<TRIPOS>BOND
     1    1    2      ar
     2    1   20      ar
     3    1   21       1
     4    2   22      ar
     5    3    9      am
     6    4    5      ar
     7    4    8       1
     8    4   11      ar
     9    5    6      ar
    10    5    9       1
    11    6    7      ar
    12    6   13       1
    13    7   12      ar
    14    9   10       2
    15   11   12      ar
    16   11   14       1
    17   14   15       1
    18   15   16       1
    19   16   17       1
    20   16   23       2
    21   17   18       1
    22   18   19      ar
    23   18   22      ar
    24   19   20      ar
    25   22   23       1
    26    2   24       1
    27    3   25       1
    28    3   26       1
    29    7   27       1
    30   12   28       1
    31   15   29       1
    32   15   30       1
    33   20   31       1
@<TRIPOS>SUBSTRUCTURE
     1 9PC402      1 GROUP             4 A     9PC     0 **** 9PC A 402
