@<TRIPOS>MOLECULE
3ocw_3AM_1_ligand
   35    37     1     0     0
SMALL
NO_CHARGES


@<TRIPOS>ATOM
     1 O1P         40.6360   -14.3110   -10.1050 O.co2        1 3AM264   0.0000
     2 P           41.3270   -14.4680    -8.6090 P.3          1 3AM264   0.0000
     3 O2P         40.5100   -15.5980    -7.7140 O.co2        1 3AM264  -1.0000
     4 O3P         41.4040   -13.1550    -7.9440 O.co2        1 3AM264  -1.0000
     5 O2'         43.9820   -12.6140    -7.6530 O.3          1 3AM264   0.0000
     6 C2'         44.7460   -13.5400    -8.3810 C.3          1 3AM264   0.0000
     7 C3'         43.9930   -14.4610    -9.3160 C.3          1 3AM264   0.0000
     8 O3'         42.8730   -15.1370    -8.7520 O.3          1 3AM264   0.0000
     9 C1'         45.6500   -14.4740    -7.6290 C.3          1 3AM264   0.0000
    10 O4'         46.1190   -15.4090    -8.6060 O.3          1 3AM264   0.0000
    11 C4'         45.1690   -15.4330    -9.7420 C.3          1 3AM264   0.0000
    12 C5'         45.8050   -15.1290   -11.1190 C.3          1 3AM264   0.0000
    13 O5'         46.1680   -13.8010   -11.3700 O.3          1 3AM264   0.0000
    14 N9          46.7810   -13.7350    -7.0490 N.pl3        1 3AM264   0.0000
    15 C8          47.0760   -13.5520    -5.7370 C.2          1 3AM264   0.0000
    16 N7          48.2400   -12.7130    -5.6570 N.2          1 3AM264   0.0000
    17 C5          48.6190   -12.3960    -6.9630 C.ar         1 3AM264   0.0000
    18 C6          49.6650   -11.6120    -7.4830 C.ar         1 3AM264   0.0000
    19 N6          50.5910   -10.9220    -6.5770 N.pl3        1 3AM264   0.0000
    20 C4          47.7460   -13.0150    -7.8310 C.ar         1 3AM264   0.0000
    21 N3          47.8840   -12.8650    -9.2530 N.ar         1 3AM264   0.0000
    22 C2          48.9430   -12.0740    -9.7790 C.ar         1 3AM264   0.0000
    23 N1          49.8080   -11.4640    -8.9260 N.ar         1 3AM264   0.0000
    24 H2'         44.4319   -12.4234    -6.7805 H            1 3AM264   0.0000
    25 H2          45.3469   -12.9945    -8.9652 H            1 3AM264   0.0000
    26 H3'         43.6926   -13.9410   -10.1156 H            1 3AM264   0.0000
    27 H1'         45.1401   -14.9481    -6.9112 H            1 3AM264   0.0000
    28 H4'         44.7875   -16.3562    -9.7894 H            1 3AM264   0.0000
    29 H5'1        45.1475   -15.4004   -11.8219 H            1 3AM264   0.0000
    30 H5'2        46.6300   -15.6882   -11.2007 H            1 3AM264   0.0000
    31 H5'         46.8405   -13.5053   -10.6915 H            1 3AM264   0.0000
    32 H9          46.5721   -13.9338    -4.9622 H            1 3AM264   0.0000
    33 H10         51.3335   -10.3655    -6.9497 H            1 3AM264   0.0000
    34 H11         50.4794   -11.0085    -5.5870 H            1 3AM264   0.0000
    35 H12         49.0501   -11.9676   -10.7675 H            1 3AM264   0.0000
@<TRIPOS>BOND
     1    1    2      ar
     2    2    3      ar
     3    2    4      ar
     4    2    8       1
     5    5    6       1
     6    6    7       1
     7    6    9       1
     8    7    8       1
     9    7   11       1
    10    9   10       1
    11    9   14       1
    12   10   11       1
    13   11   12       1
    14   12   13       1
    15   14   15       1
    16   14   20       1
    17   15   16       2
    18   16   17       1
    19   17   18      ar
    20   17   20      ar
    21   18   19       1
    22   18   23      ar
    23   20   21      ar
    24   21   22      ar
    25   22   23      ar
    26   22   35       1
    27   19   34       1
    28    5   24       1
    29    6   25       1
    30    7   26       1
    31    9   27       1
    32   11   28       1
    33   12   29       1
    34   12   30       1
    35   13   31       1
    36   15   32       1
    37   19   33       1
@<TRIPOS>SUBSTRUCTURE
     1 3AM264      1 GROUP             4 A     3AM     0 **** 3AM A 264
