@<TRIPOS>MOLECULE
2b5o_FAD_1_ligand
   85    90     1     0     0
SMALL
NO_CHARGES


@<TRIPOS>ATOM
     1 PA         -15.7810    48.4160     2.2990 P.3          1 FAD403   0.0000
     2 O1A        -15.1890    49.6700     2.8500 O.co2        1 FAD403   0.0000
     3 O2A        -17.2190    48.4760     1.8160 O.co2        1 FAD403  -1.0000
     4 O5B        -15.5680    47.3150     3.4500 O.3          1 FAD403   0.0000
     5 C5B        -14.3740    47.3940     4.2010 C.3          1 FAD403   0.0000
     6 C4B        -14.7400    47.4690     5.6860 C.3          1 FAD403   0.0000
     7 O4B        -15.6290    46.4500     6.1500 O.3          1 FAD403   0.0000
     8 C3B        -13.5000    47.3940     6.5690 C.3          1 FAD403   0.0000
     9 O3B        -12.9010    48.6300     6.7830 O.3          1 FAD403   0.0000
    10 C2B        -14.1180    46.8400     7.8370 C.3          1 FAD403   0.0000
    11 O2B        -14.7520    47.9170     8.4820 O.3          1 FAD403   0.0000
    12 C1B        -15.1000    45.8090     7.2930 C.3          1 FAD403   0.0000
    13 N9A        -14.2380    44.6570     6.9450 N.pl3        1 FAD403   0.0000
    14 C8A        -13.1630    44.5850     6.0880 C.2          1 FAD403   0.0000
    15 N7A        -12.6190    43.3500     6.0740 N.2          1 FAD403   0.0000
    16 C5A        -13.3260    42.6180     6.9440 C.ar         1 FAD403   0.0000
    17 C6A        -13.1900    41.2860     7.2780 C.ar         1 FAD403   0.0000
    18 N6A        -12.0800    40.6030     6.9660 N.pl3        1 FAD403   0.0000
    19 N1A        -14.0880    40.8180     8.2120 N.ar         1 FAD403   1.0000
    20 C2A        -15.0830    41.6200     8.7420 C.ar         1 FAD403   0.0000
    21 N3A        -15.2140    42.9490     8.3800 N.ar         1 FAD403   0.0000
    22 C4A        -14.3310    43.4140     7.4850 C.ar         1 FAD403   0.0000
    23 N1          -6.9810    49.0300    -2.1560 N.2          1 FAD403   0.0000
    24 C2          -6.6780    48.4100    -3.3500 C.2          1 FAD403   0.0000
    25 O2          -7.3410    47.4570    -3.7470 O.2          1 FAD403   0.0000
    26 N3          -5.6230    48.8290    -4.1180 N.pl3        1 FAD403   0.0000
    27 C4          -4.8340    49.8840    -3.7340 C.2          1 FAD403   0.0000
    28 O4          -3.9540    50.2770    -4.5010 O.2          1 FAD403   0.0000
    29 C4X         -5.1330    50.5290    -2.5390 C.2          1 FAD403   0.0000
    30 N5          -4.3630    51.5850    -2.1270 N.2          1 FAD403   0.0000
    31 C5X         -4.6660    52.1770    -0.9310 C.ar         1 FAD403   0.0000
    32 C6          -3.8850    53.2530    -0.5190 C.ar         1 FAD403   0.0000
    33 C7          -4.1610    53.9170     0.6810 C.ar         1 FAD403   0.0000
    34 C7M         -3.4300    55.1970     0.9460 C.3          1 FAD403   0.0000
    35 C8          -5.2240    53.5080     1.4920 C.ar         1 FAD403   0.0000
    36 C8M         -5.6480    54.3190     2.7020 C.3          1 FAD403   0.0000
    37 C9          -5.9950    52.4220     1.0500 C.ar         1 FAD403   0.0000
    38 C9A         -5.7310    51.7510    -0.1420 C.ar         1 FAD403   0.0000
    39 N10         -6.5080    50.7020    -0.5640 N.pl3        1 FAD403   0.0000
    40 C10         -6.2030    50.0980    -1.7590 C.2          1 FAD403   0.0000
    41 C1'         -7.6740    50.1620     0.2000 C.3          1 FAD403   0.0000
    42 C2'         -8.9410    50.8950    -0.2270 C.3          1 FAD403   0.0000
    43 O2'         -8.8550    52.2460     0.1390 O.3          1 FAD403   0.0000
    44 C3'        -10.2180    50.3090     0.3820 C.3          1 FAD403   0.0000
    45 O3'        -10.1590    50.2300     1.7840 O.3          1 FAD403   0.0000
    46 C4'        -10.5140    48.8920    -0.1050 C.3          1 FAD403   0.0000
    47 O4'        -10.6070    48.9130    -1.5210 O.3          1 FAD403   0.0000
    48 C5'        -11.7930    48.3430     0.5250 C.3          1 FAD403   0.0000
    49 O5'        -12.8500    49.2460     0.3080 O.3          1 FAD403   0.0000
    50 P          -14.3170    48.7250    -0.0640 P.3          1 FAD403   0.0000
    51 O1P        -15.1160    49.9850    -0.3000 O.co2        1 FAD403   0.0000
    52 O2P        -14.3350    47.7890    -1.2340 O.co2        1 FAD403  -1.0000
    53 O3P        -14.6980    47.8880     1.2370 O.3          1 FAD403   0.0000
    54 H5B1       -13.8630    48.2122     3.9375 H            1 FAD403   0.0000
    55 H5B2       -13.8145    46.5827     4.0318 H            1 FAD403   0.0000
    56 H4B        -15.1776    48.3534     5.8485 H            1 FAD403   0.0000
    57 H3B        -12.8393    46.7461     6.1899 H            1 FAD403   0.0000
    58 H5         -13.0607    49.2194     5.9911 H            1 FAD403   0.0000
    59 H2B        -13.4293    46.4153     8.4247 H            1 FAD403   0.0000
    60 H7         -14.2673    48.7653     8.2688 H            1 FAD403   0.0000
    61 H1B        -15.8078    45.5688     7.9574 H            1 FAD403   0.0000
    62 H8A        -12.8267    45.3531     5.5431 H            1 FAD403   0.0000
    63 H6A1       -11.9996    39.6382     7.2164 H            1 FAD403   0.0000
    64 H6A2       -11.3321    41.0582     6.4828 H            1 FAD403   0.0000
    65 H2A        -15.7235    41.2294     9.4032 H            1 FAD403   0.0000
    66 H13         -5.4240    48.3559    -4.9763 H            1 FAD403   0.0000
    67 H14         -3.1188    53.5544    -1.0866 H            1 FAD403   0.0000
    68 H7M1        -3.7161    55.5674     1.8297 H            1 FAD403   0.0000
    69 H7M2        -2.4456    55.0217     0.9610 H            1 FAD403   0.0000
    70 H7M3        -3.6402    55.8565     0.2243 H            1 FAD403   0.0000
    71 H8M1        -6.4197    53.8688     3.1513 H            1 FAD403   0.0000
    72 H8M2        -4.8830    54.3871     3.3424 H            1 FAD403   0.0000
    73 H8M3        -5.9208    55.2357     2.4099 H            1 FAD403   0.0000
    74 H21         -6.7638    52.1179     1.6125 H            1 FAD403   0.0000
    75 H1'1        -7.5235    50.2982     1.1792 H            1 FAD403   0.0000
    76 H1'2        -7.7736    49.1851     0.0107 H            1 FAD403   0.0000
    77 H2'         -9.0145    50.8427    -1.2229 H            1 FAD403   0.0000
    78 H25         -8.4384    52.7673    -0.6058 H            1 FAD403   0.0000
    79 H3'        -10.9869    50.8969     0.1305 H            1 FAD403   0.0000
    80 H27        -11.0798    50.3251     2.1623 H            1 FAD403   0.0000
    81 H4'         -9.7513    48.3000     0.1553 H            1 FAD403   0.0000
    82 H29        -10.3153    48.0294    -1.8873 H            1 FAD403   0.0000
    83 H5'1       -11.6547    48.2222     1.5080 H            1 FAD403   0.0000
    84 H5'2       -12.0173    47.4617     0.1092 H            1 FAD403   0.0000
    85 H1A        -14.0184    39.8681     8.5167 H            1 FAD403   0.0000
@<TRIPOS>BOND
     1    1    2      ar
     2    1    3      ar
     3    1    4       1
     4    1   53       1
     5    4    5       1
     6    5    6       1
     7    6    7       1
     8    6    8       1
     9    7   12       1
    10    8    9       1
    11    8   10       1
    12   10   11       1
    13   10   12       1
    14   12   13       1
    15   13   14       1
    16   13   22       1
    17   14   15       2
    18   15   16       1
    19   16   17      ar
    20   16   22      ar
    21   17   18       1
    22   17   19      ar
    23   19   20      ar
    24   20   21      ar
    25   21   22      ar
    26   23   24       1
    27   23   40       2
    28   24   25       2
    29   24   26       1
    30   26   27       1
    31   27   28       2
    32   27   29       1
    33   29   30       2
    34   29   40       1
    35   30   31       1
    36   31   32      ar
    37   31   38      ar
    38   32   33      ar
    39   33   34       1
    40   33   35      ar
    41   35   36       1
    42   35   37      ar
    43   37   38      ar
    44   38   39       1
    45   39   40       1
    46   39   41       1
    47   41   42       1
    48   42   43       1
    49   42   44       1
    50   44   45       1
    51   44   46       1
    52   46   47       1
    53   46   48       1
    54   48   49       1
    55   49   50       1
    56   50   51      ar
    57   50   52      ar
    58   50   53       1
    59   48   84       1
    60    5   54       1
    61    5   55       1
    62    6   56       1
    63    8   57       1
    64    9   58       1
    65   10   59       1
    66   11   60       1
    67   12   61       1
    68   14   62       1
    69   18   63       1
    70   18   64       1
    71   20   65       1
    72   26   66       1
    73   32   67       1
    74   34   68       1
    75   34   69       1
    76   34   70       1
    77   36   71       1
    78   36   72       1
    79   36   73       1
    80   37   74       1
    81   41   75       1
    82   41   76       1
    83   42   77       1
    84   43   78       1
    85   44   79       1
    86   45   80       1
    87   46   81       1
    88   47   82       1
    89   48   83       1
    90   19   85       1
@<TRIPOS>SUBSTRUCTURE
     1 FAD403      1 GROUP             4 A     FAD     0 **** FAD A 403
