@<TRIPOS>MOLECULE
2ivv_PP1_1_ligand
   40    42     1     0     0
SMALL
NO_CHARGES


@<TRIPOS>ATOM
     1 N1          25.8500     8.2390    10.2090 N.pl3        1 PP13014   0.0000
     2 C2          23.5110    10.2960    12.0650 C.ar         1 PP13014   0.0000
     3 N3          24.6560    10.0170    11.4680 N.ar         1 PP13014   0.0000
     4 C4          24.8170     8.8150    10.8530 C.ar         1 PP13014   0.0000
     5 C5          23.7740     7.8790    10.8470 C.ar         1 PP13014   0.0000
     6 C6          22.5760     8.2290    11.5100 C.ar         1 PP13014   0.0000
     7 N7          22.4930     9.4270    12.0850 N.ar         1 PP13014   0.0000
     8 N8          25.5550     7.1110     9.7820 N.2          1 PP13014   0.0000
     9 C9          24.3090     6.7800    10.1440 C.2          1 PP13014   0.0000
    10 N10         21.5160     7.4320    11.6050 N.pl3        1 PP13014   0.0000
    11 C11         23.6700     5.5880     9.7680 C.ar         1 PP13014   0.0000
    12 C12         24.1890     4.3410    10.0270 C.ar         1 PP13014   0.0000
    13 C13         23.5160     3.2030     9.5770 C.ar         1 PP13014   0.0000
    14 C14         22.3550     3.3080     8.8030 C.ar         1 PP13014   0.0000
    15 C15         21.8470     4.5790     8.4910 C.ar         1 PP13014   0.0000
    16 C16         22.5210     5.7030     8.9720 C.ar         1 PP13014   0.0000
    17 C24         21.6420     2.0230     8.3050 C.3          1 PP13014   0.0000
    18 C28         27.2010     8.8780     9.9540 C.3          1 PP13014   0.0000
    19 C29         27.7590     9.4860    11.2590 C.3          1 PP13014   0.0000
    20 C33         28.1610     7.7460     9.4820 C.3          1 PP13014   0.0000
    21 C37         27.0660     9.9750     8.8940 C.3          1 PP13014   0.0000
    22 H1          23.4016    11.1822    12.5151 H            1 PP13014   0.0000
    23 H2          20.6984     7.7430    12.0895 H            1 PP13014   0.0000
    24 H3          21.5364     6.5215    11.1919 H            1 PP13014   0.0000
    25 H4          25.0451     4.2495    10.5357 H            1 PP13014   0.0000
    26 H5          23.8699     2.2977     9.8119 H            1 PP13014   0.0000
    27 H6          21.0206     4.6771     7.9365 H            1 PP13014   0.0000
    28 H7          22.1758     6.6132     8.7432 H            1 PP13014   0.0000
    29 H8          20.8355     2.2752     7.7703 H            1 PP13014   0.0000
    30 H9          22.2691     1.4942     7.7330 H            1 PP13014   0.0000
    31 H10         21.3619     1.4714     9.0907 H            1 PP13014   0.0000
    32 H11         28.6493     9.9039    11.0780 H            1 PP13014   0.0000
    33 H12         27.1269    10.1822    11.5993 H            1 PP13014   0.0000
    34 H13         27.8622     8.7656    11.9449 H            1 PP13014   0.0000
    35 H14         29.0667     8.1302     9.3029 H            1 PP13014   0.0000
    36 H15         28.2298     7.0484    10.1952 H            1 PP13014   0.0000
    37 H16         27.8028     7.3326     8.6449 H            1 PP13014   0.0000
    38 H17         27.9599    10.3923     8.7304 H            1 PP13014   0.0000
    39 H18         26.7236     9.5762     8.0433 H            1 PP13014   0.0000
    40 H19         26.4263    10.6729     9.2161 H            1 PP13014   0.0000
@<TRIPOS>BOND
     1    1    4       1
     2    1    8       1
     3    1   18       1
     4    2    3      ar
     5    2    7      ar
     6    3    4      ar
     7    4    5      ar
     8    5    6      ar
     9    5    9       1
    10    6    7      ar
    11    6   10       1
    12    8    9       2
    13    9   11       1
    14   11   12      ar
    15   11   16      ar
    16   12   13      ar
    17   13   14      ar
    18   14   15      ar
    19   14   17       1
    20   15   16      ar
    21   18   19       1
    22   18   20       1
    23   18   21       1
    24    2   22       1
    25   10   23       1
    26   10   24       1
    27   12   25       1
    28   13   26       1
    29   15   27       1
    30   16   28       1
    31   17   29       1
    32   17   30       1
    33   17   31       1
    34   19   32       1
    35   19   33       1
    36   19   34       1
    37   20   35       1
    38   20   36       1
    39   20   37       1
    40   21   38       1
    41   21   39       1
    42   21   40       1
@<TRIPOS>SUBSTRUCTURE
     1 PP13014     1 GROUP             4 A     PP1     0 **** PP1 A3014
