@<TRIPOS>MOLECULE
4dc2_ADE_1_ligand
   15    16     1     0     0
SMALL
NO_CHARGES


@<TRIPOS>ATOM
     1 N9           9.2960    -6.7070    17.9440 N.pl3        1 ADE601   0.0000
     2 C8           9.3640    -7.7300    17.0800 C.2          1 ADE601   0.0000
     3 N7           8.8140    -7.3250    15.9220 N.2          1 ADE601   0.0000
     4 C5           8.3990    -6.0430    16.0400 C.ar         1 ADE601   0.0000
     5 C6           7.7700    -5.1250    15.1810 C.ar         1 ADE601   0.0000
     6 N6           7.4030    -5.4690    13.8050 N.pl3        1 ADE601   0.0000
     7 N1           7.4850    -3.9010    15.6240 N.ar         1 ADE601   0.0000
     8 C2           7.7920    -3.5500    16.8790 C.ar         1 ADE601   0.0000
     9 N3           8.3890    -4.3970    17.7250 N.ar         1 ADE601   0.0000
    10 C4           8.7070    -5.6470    17.3410 C.ar         1 ADE601   0.0000
    11 H1           9.6285    -6.7240    18.8870 H            1 ADE601   0.0000
    12 H2           9.7539    -8.6323    17.2639 H            1 ADE601   0.0000
    13 H3           6.9564    -4.7902    13.2220 H            1 ADE601   0.0000
    14 H4           7.5991    -6.3826    13.4487 H            1 ADE601   0.0000
    15 H5           7.5684    -2.6274    17.1933 H            1 ADE601   0.0000
@<TRIPOS>BOND
     1    1    2       1
     2    1   10       1
     3    2    3       2
     4    3    4       1
     5    4    5      ar
     6    4   10      ar
     7    5    6       1
     8    5    7      ar
     9    7    8      ar
    10    8    9      ar
    11    9   10      ar
    12    1   11       1
    13    2   12       1
    14    6   13       1
    15    6   14       1
    16    8   15       1
@<TRIPOS>SUBSTRUCTURE
     1 ADE601      1 GROUP             4 A     ADE     0 **** ADE A 601
