@<TRIPOS>MOLECULE
5bx3_NOJ_1_ligand
   25    25     1     0     0
SMALL
NO_CHARGES


@<TRIPOS>ATOM
     1 C1          56.9900    67.3310    61.3900 C.3          1 NOJ901   0.0000
     2 C2          56.5260    66.7470    60.0550 C.3          1 NOJ901   0.0000
     3 O2          55.6520    65.6280    60.3270 O.3          1 NOJ901   0.0000
     4 C3          57.6820    66.3570    59.1230 C.3          1 NOJ901   0.0000
     5 O3          57.2060    66.0830    57.8110 O.3          1 NOJ901   0.0000
     6 C4          58.7460    67.4480    59.0140 C.3          1 NOJ901   0.0000
     7 O4          59.8390    67.0010    58.2130 O.3          1 NOJ901   0.0000
     8 C5          59.2510    67.8180    60.3920 C.3          1 NOJ901   0.0000
     9 N5          58.1010    68.2520    61.1810 N.4          1 NOJ901   1.0000
    10 C6          60.3400    68.8740    60.3710 C.3          1 NOJ901   0.0000
    11 O6          60.9060    68.9570    61.6900 O.3          1 NOJ901   0.0000
    12 H1          57.2861    66.5878    61.9900 H            1 NOJ901   0.0000
    13 H2          56.2306    67.8218    61.8171 H            1 NOJ901   0.0000
    14 H3          55.9851    67.4476    59.5897 H            1 NOJ901   0.0000
    15 H4          56.1497    64.9355    60.8493 H            1 NOJ901   0.0000
    16 H5          58.1130    65.5294    59.4826 H            1 NOJ901   0.0000
    17 H6          57.9750    65.8318    57.2231 H            1 NOJ901   0.0000
    18 H7          58.3402    68.2568    58.5883 H            1 NOJ901   0.0000
    19 H8          60.2548    67.7837    57.7498 H            1 NOJ901   0.0000
    20 H9          59.6258    66.9940    60.8169 H            1 NOJ901   0.0000
    21 H10         58.4459    68.5030    62.0855 H            1 NOJ901   0.0000
    22 H11         59.9502    69.7580    60.1130 H            1 NOJ901   0.0000
    23 H12         61.0485    68.6175    59.7135 H            1 NOJ901   0.0000
    24 H13         61.6713    68.3178    61.7652 H            1 NOJ901   0.0000
    25 H14         57.7271    69.0625    60.7301 H            1 NOJ901   0.0000
@<TRIPOS>BOND
     1    1    2       1
     2    1    9       1
     3    2    3       1
     4    2    4       1
     5    4    5       1
     6    4    6       1
     7    6    7       1
     8    6    8       1
     9    8    9       1
    10    8   10       1
    11   10   11       1
    12    1   12       1
    13    1   13       1
    14    2   14       1
    15    3   15       1
    16    4   16       1
    17    5   17       1
    18    6   18       1
    19    7   19       1
    20    8   20       1
    21    9   21       1
    22   10   22       1
    23   10   23       1
    24   11   24       1
    25    9   25       1
@<TRIPOS>SUBSTRUCTURE
     1 NOJ901      1 GROUP             4 A     NOJ     0 **** NOJ A 901
