@<TRIPOS>MOLECULE
4l4x_NDP_1_ligand
   73    77     1     0     0
SMALL
NO_CHARGES


@<TRIPOS>ATOM
     1 PA          33.8720   -22.8450    24.7540 P.3          1 NDP601   0.0000
     2 O1A         34.1450   -23.8500    25.8330 O.co2        1 NDP601   0.0000
     3 O2A         34.8230   -21.6760    24.6260 O.co2        1 NDP601  -1.0000
     4 O5B         33.7420   -23.5990    23.3400 O.3          1 NDP601   0.0000
     5 C5B         34.3500   -23.0110    22.2220 C.3          1 NDP601   0.0000
     6 C4B         34.6840   -24.1440    21.3390 C.3          1 NDP601   0.0000
     7 O4B         34.5840   -23.6330    20.0040 O.3          1 NDP601   0.0000
     8 C3B         36.1010   -24.5710    21.6960 C.3          1 NDP601   0.0000
     9 O3B         36.1810   -25.9620    21.9120 O.3          1 NDP601   0.0000
    10 C2B         36.8600   -24.2220    20.4640 C.3          1 NDP601   0.0000
    11 O2B         37.6310   -25.3630    20.1430 O.3          1 NDP601   0.0000
    12 C1B         35.8190   -23.8800    19.3770 C.3          1 NDP601   0.0000
    13 N9A         36.3180   -22.7660    18.5660 N.pl3        1 NDP601   0.0000
    14 C8A         36.8630   -21.5460    18.8980 C.2          1 NDP601   0.0000
    15 N7A         37.2740   -20.8740    17.7430 N.2          1 NDP601   0.0000
    16 C5A         37.0320   -21.6980    16.7060 C.ar         1 NDP601   0.0000
    17 C6A         37.2250   -21.7060    15.2580 C.ar         1 NDP601   0.0000
    18 N6A         37.7710   -20.6290    14.6420 N.pl3        1 NDP601   0.0000
    19 N1A         36.8260   -22.8020    14.5330 N.ar         1 NDP601   0.0000
    20 C2A         36.3050   -23.8830    15.1460 C.ar         1 NDP601   0.0000
    21 N3A         36.1200   -23.9610    16.4710 N.ar         1 NDP601   0.0000
    22 C4A         36.4260   -22.9270    17.2630 C.ar         1 NDP601   0.0000
    23 O3          32.3990   -22.2950    25.0230 O.3          1 NDP601   0.0000
    24 PN          31.3270   -23.1320    25.8860 P.3          1 NDP601   0.0000
    25 O1N         31.4250   -22.7300    27.3500 O.co2        1 NDP601   0.0000
    26 O2N         31.3250   -24.5800    25.4070 O.co2        1 NDP601  -1.0000
    27 O5D         29.9770   -22.4660    25.3670 O.3          1 NDP601   0.0000
    28 C5D         29.1690   -23.1160    24.3960 C.3          1 NDP601   0.0000
    29 C4D         28.1530   -22.1470    23.7910 C.3          1 NDP601   0.0000
    30 O4D         27.0790   -21.8390    24.7120 O.3          1 NDP601   0.0000
    31 C3D         28.8100   -20.8490    23.3730 C.3          1 NDP601   0.0000
    32 O3D         28.6240   -20.6690    21.9630 O.3          1 NDP601   0.0000
    33 C2D         28.1400   -19.7930    24.2470 C.3          1 NDP601   0.0000
    34 O2D         27.7330   -18.6750    23.4560 O.3          1 NDP601   0.0000
    35 C1D         26.9410   -20.4380    24.9590 C.3          1 NDP601   0.0000
    36 N1N         26.8720   -20.1740    26.4240 N.ar         1 NDP601   1.0000
    37 C2N         27.5610   -20.9380    27.2980 C.ar         1 NDP601   0.0000
    38 C3N         27.5120   -20.7360    28.6820 C.ar         1 NDP601   0.0000
    39 C7N         28.2940   -21.5770    29.6880 C.2          1 NDP601   0.0000
    40 O7N         27.8650   -21.6760    30.8540 O.2          1 NDP601   0.0000
    41 N7N         29.4490   -22.1600    29.3120 N.am         1 NDP601   0.0000
    42 C4N         26.6700   -19.6120    29.2420 C.ar         1 NDP601   0.0000
    43 C5N         25.9690   -18.8600    28.2170 C.ar         1 NDP601   0.0000
    44 C6N         26.0970   -19.1740    26.8670 C.ar         1 NDP601   0.0000
    45 P2B         39.0570   -25.2130    19.4100 P.3          1 NDP601   0.0000
    46 O1X         39.6960   -24.1850    20.3040 O.co2        1 NDP601   0.0000
    47 O2X         39.5680   -26.6180    19.6010 O.co2        1 NDP601  -1.0000
    48 O3X         38.8310   -24.8350    17.9540 O.co2        1 NDP601  -1.0000
    49 H5B1        35.1770   -22.5165    22.4895 H            1 NDP601   0.0000
    50 H5B2        33.7188   -22.3831    21.7667 H            1 NDP601   0.0000
    51 H4B         34.0430   -24.8991    21.4765 H            1 NDP601   0.0000
    52 H3B         36.4427   -24.0628    22.4865 H            1 NDP601   0.0000
    53 H5          37.1217   -26.2098    22.1439 H            1 NDP601   0.0000
    54 H2B         37.4556   -23.4369    20.6337 H            1 NDP601   0.0000
    55 H1B         35.7141   -24.6772    18.7825 H            1 NDP601   0.0000
    56 H8A         36.9519   -21.1923    19.8291 H            1 NDP601   0.0000
    57 H6A1        37.9034   -20.6337    13.6508 H            1 NDP601   0.0000
    58 H6A2        38.0414   -19.8297    15.1788 H            1 NDP601   0.0000
    59 H2A         36.0430   -24.6671    14.5834 H            1 NDP601   0.0000
    60 H5D1        28.6806   -23.8727    24.8306 H            1 NDP601   0.0000
    61 H5D2        29.7551   -23.4718    23.6681 H            1 NDP601   0.0000
    62 H4D         27.7569   -22.5744    22.9783 H            1 NDP601   0.0000
    63 H3D         29.7875   -20.8855    23.5806 H            1 NDP601   0.0000
    64 H16         29.3864   -21.0881    21.4700 H            1 NDP601   0.0000
    65 H2D         28.7947   -19.4805    24.9353 H            1 NDP601   0.0000
    66 H18         27.7605   -17.8449    24.0130 H            1 NDP601   0.0000
    67 H1D         26.0971   -20.1146    24.5309 H            1 NDP601   0.0000
    68 H2N         28.1301   -21.6791    26.9417 H            1 NDP601   0.0000
    69 H7N1        29.9663   -22.7122    29.9658 H            1 NDP601   0.0000
    70 H7N2        29.7889   -22.0405    28.3792 H            1 NDP601   0.0000
    71 H4N         26.6028   -19.4075    30.2186 H            1 NDP601   0.0000
    72 H5N         25.3802   -18.0983    28.4873 H            1 NDP601   0.0000
    73 H6N         25.5890   -18.6303    26.1989 H            1 NDP601   0.0000
@<TRIPOS>BOND
     1    1    2      ar
     2    1    3      ar
     3    1    4       1
     4    1   23       1
     5    4    5       1
     6    5    6       1
     7    6    7       1
     8    6    8       1
     9    7   12       1
    10    8    9       1
    11    8   10       1
    12   10   11       1
    13   10   12       1
    14   11   45       1
    15   12   13       1
    16   13   14       1
    17   13   22       1
    18   14   15       2
    19   15   16       1
    20   16   17      ar
    21   16   22      ar
    22   17   18       1
    23   17   19      ar
    24   19   20      ar
    25   20   21      ar
    26   21   22      ar
    27   23   24       1
    28   24   25      ar
    29   24   26      ar
    30   24   27       1
    31   27   28       1
    32   28   29       1
    33   29   30       1
    34   29   31       1
    35   30   35       1
    36   31   32       1
    37   31   33       1
    38   33   34       1
    39   33   35       1
    40   35   36       1
    41   36   37      ar
    42   36   44      ar
    43   37   38      ar
    44   38   39       1
    45   38   42      ar
    46   39   40       2
    47   39   41      am
    48   42   43      ar
    49   43   44      ar
    50   45   46      ar
    51   45   47      ar
    52   45   48      ar
    53   43   72       1
    54    5   49       1
    55    5   50       1
    56    6   51       1
    57    8   52       1
    58    9   53       1
    59   10   54       1
    60   12   55       1
    61   14   56       1
    62   18   57       1
    63   18   58       1
    64   20   59       1
    65   44   73       1
    66   28   60       1
    67   28   61       1
    68   29   62       1
    69   31   63       1
    70   32   64       1
    71   33   65       1
    72   34   66       1
    73   35   67       1
    74   37   68       1
    75   41   69       1
    76   41   70       1
    77   42   71       1
@<TRIPOS>SUBSTRUCTURE
     1 NDP601      1 GROUP             4 A     NDP     0 **** NDP A 601
