@<TRIPOS>MOLECULE
4yhj_AN2_2_ligand
   41    43     1     0     0
SMALL
NO_CHARGES


@<TRIPOS>ATOM
     1 N3B         20.2020    26.5440    73.8890 N.3          1 AN2601   0.0000
     2 PB          21.2310    27.6280    73.2680 P.3          1 AN2601   0.0000
     3 O2B         22.5970    27.1570    73.5880 O.co2        1 AN2601   0.0000
     4 O1B         21.1330    27.6860    71.6520 O.co2        1 AN2601  -1.0000
     5 O3A         21.0660    29.1370    73.8760 O.3          1 AN2601   0.0000
     6 PA          19.5790    29.6490    74.2980 P.3          1 AN2601   0.0000
     7 O1A         18.8600    30.2010    73.1240 O.co2        1 AN2601   0.0000
     8 O2A         18.6620    28.5040    74.9800 O.co2        1 AN2601  -1.0000
     9 O5'         19.8090    30.8440    75.3520 O.3          1 AN2601   0.0000
    10 C5'         20.3770    30.3010    76.5460 C.3          1 AN2601   0.0000
    11 C4'         19.5000    30.7170    77.7220 C.3          1 AN2601   0.0000
    12 O4'         19.2980    32.1520    77.7230 O.3          1 AN2601   0.0000
    13 C3'         18.0850    30.1380    77.5510 C.3          1 AN2601   0.0000
    14 O3'         18.0170    28.7720    77.9690 O.3          1 AN2601   0.0000
    15 C2'         17.2780    31.0920    78.4510 C.3          1 AN2601   0.0000
    16 O2'         17.5390    30.8140    79.8280 O.3          1 AN2601   0.0000
    17 C1'         17.9240    32.4480    78.1000 C.3          1 AN2601   0.0000
    18 N9          17.1620    33.1520    77.0510 N.pl3        1 AN2601   0.0000
    19 C8          17.2730    32.9530    75.6980 C.2          1 AN2601   0.0000
    20 N7          16.4480    33.7330    75.0550 N.2          1 AN2601   0.0000
    21 C5          15.7450    34.4950    75.9510 C.ar         1 AN2601   0.0000
    22 C4          16.2010    34.1250    77.2400 C.ar         1 AN2601   0.0000
    23 N3          15.6600    34.7330    78.2970 N.ar         1 AN2601   0.0000
    24 C2          14.7190    35.6660    78.1690 C.ar         1 AN2601   0.0000
    25 N1          14.2570    36.0430    76.9860 N.ar         1 AN2601   0.0000
    26 C6          14.7320    35.4910    75.8610 C.ar         1 AN2601   0.0000
    27 N6          14.2170    35.8690    74.6430 N.pl3        1 AN2601   0.0000
    28 H3B1        19.6070    26.9930    74.5556 H            1 AN2601   0.0000
    29 H3B2        19.6458    26.1539    73.1552 H            1 AN2601   0.0000
    30 H5'1        21.3033    30.6560    76.6722 H            1 AN2601   0.0000
    31 H5'2        20.4080    29.3035    76.4830 H            1 AN2601   0.0000
    32 H4'         19.9026    30.4163    78.5866 H            1 AN2601   0.0000
    33 H3'         17.7879    30.2245    76.6001 H            1 AN2601   0.0000
    34 H7          18.2206    28.1753    77.1928 H            1 AN2601   0.0000
    35 H2'         16.3006    31.0735    78.2406 H            1 AN2601   0.0000
    36 H9          17.0094    31.4398    80.4006 H            1 AN2601   0.0000
    37 H1'         17.9351    33.0176    78.9219 H            1 AN2601   0.0000
    38 H11         17.8976    32.3024    75.2660 H            1 AN2601   0.0000
    39 H12         14.3489    36.0961    78.9924 H            1 AN2601   0.0000
    40 H13         13.5056    36.5703    74.5968 H            1 AN2601   0.0000
    41 H14         14.5539    35.4425    73.8036 H            1 AN2601   0.0000
@<TRIPOS>BOND
     1    1    2       1
     2    2    3      ar
     3    2    4      ar
     4    2    5       1
     5    5    6       1
     6    6    7      ar
     7    6    8      ar
     8    6    9       1
     9    9   10       1
    10   10   11       1
    11   11   12       1
    12   11   13       1
    13   12   17       1
    14   13   14       1
    15   13   15       1
    16   15   16       1
    17   15   17       1
    18   17   18       1
    19   18   19       1
    20   18   22       1
    21   19   20       2
    22   20   21       1
    23   21   22      ar
    24   21   26      ar
    25   22   23      ar
    26   23   24      ar
    27   24   25      ar
    28   25   26      ar
    29   26   27       1
    30    1   28       1
    31    1   29       1
    32   27   41       1
    33   27   40       1
    34   10   30       1
    35   10   31       1
    36   11   32       1
    37   13   33       1
    38   14   34       1
    39   15   35       1
    40   16   36       1
    41   17   37       1
    42   19   38       1
    43   24   39       1
@<TRIPOS>SUBSTRUCTURE
     1 AN2601      1 GROUP             4 B     AN2     0 **** AN2 B 601
