@<TRIPOS>MOLECULE
4uug_PXG_1_ligand
   38    39     1     0     0
SMALL
NO_CHARGES


@<TRIPOS>ATOM
     1 N1          71.9160   -12.1500    17.6450 N.ar         1 PXG401   0.0000
     2 C2          72.1070   -13.2700    18.3690 C.ar         1 PXG401   0.0000
     3 C2A         72.6140   -13.1400    19.7800 C.3          1 PXG401   0.0000
     4 C3          71.8030   -14.5800    17.8120 C.ar         1 PXG401   0.0000
     5 O3          71.9670   -15.6960    18.5450 O.3          1 PXG401  -1.0000
     6 C5          71.1300   -13.4090    15.7680 C.ar         1 PXG401   0.0000
     7 C6          71.4430   -12.2260    16.3990 C.ar         1 PXG401   0.0000
     8 C5A         70.6140   -13.4380    14.3530 C.3          1 PXG401   0.0000
     9 OP4         71.6940   -13.7710    13.4790 O.3          1 PXG401   0.0000
    10 P           71.4110   -14.4190    12.0140 P.3          1 PXG401   0.0000
    11 OP1         72.7720   -14.4190    11.3720 O.co2        1 PXG401   0.0000
    12 OP2         70.8150   -15.7980    12.2800 O.co2        1 PXG401  -1.0000
    13 OP3         70.3650   -13.5290    11.3160 O.co2        1 PXG401  -1.0000
    14 C4          71.3030   -14.6800    16.4550 C.ar         1 PXG401   0.0000
    15 C4A         70.9780   -15.9790    15.7560 C.3          1 PXG401   0.0000
    16 C8          69.2890   -19.9870    17.3820 C.ar         1 PXG401   0.0000
    17 C9          70.1650   -18.9300    17.5190 C.ar         1 PXG401   0.0000
    18 C10         70.4580   -18.2140    16.3890 C.ar         1 PXG401   0.0000
    19 C11         69.8950   -18.4950    15.1390 C.ar         1 PXG401   0.0000
    20 C12         69.0240   -19.5490    15.0230 C.ar         1 PXG401   0.0000
    21 C13         68.7200   -20.2990    16.1400 C.ar         1 PXG401   0.0000
    22 N9          71.2510   -17.1610    16.5720 N.pl3        1 PXG401   0.0000
    23 C7          68.9580   -20.7930    18.6010 C.2          1 PXG401   0.0000
    24 O2          69.8220   -20.8880    19.5440 O.co2        1 PXG401   0.0000
    25 O8          67.8010   -21.3190    18.6220 O.co2        1 PXG401  -1.0000
    26 H2A1        72.7049   -14.0491    20.1866 H            1 PXG401   0.0000
    27 H2A2        73.5055   -12.6871    19.7735 H            1 PXG401   0.0000
    28 H2A3        71.9684   -12.5975    20.3175 H            1 PXG401   0.0000
    29 H4          71.3080   -11.3734    15.8941 H            1 PXG401   0.0000
    30 H5A1        70.2486   -12.5396    14.1095 H            1 PXG401   0.0000
    31 H5A2        69.8916   -14.1247    14.2722 H            1 PXG401   0.0000
    32 H4A1        71.5265   -16.0360    14.9218 H            1 PXG401   0.0000
    33 H4A2        70.0070   -15.9761    15.5169 H            1 PXG401   0.0000
    34 H9          70.5680   -18.6971    18.4040 H            1 PXG401   0.0000
    35 H10         70.1240   -17.9360    14.3421 H            1 PXG401   0.0000
    36 H11         68.6141   -19.7709    14.1383 H            1 PXG401   0.0000
    37 H12         68.0890   -21.0710    16.0629 H            1 PXG401   0.0000
    38 H13         71.9983   -17.1775    17.2363 H            1 PXG401   0.0000
@<TRIPOS>BOND
     1    1    2      ar
     2    1    7      ar
     3    2    3       1
     4    2    4      ar
     5    4    5       1
     6    4   14      ar
     7    6    7      ar
     8    6    8       1
     9    6   14      ar
    10    8    9       1
    11    9   10       1
    12   10   11      ar
    13   10   12      ar
    14   10   13      ar
    15   14   15       1
    16   15   22       1
    17   16   17      ar
    18   16   21      ar
    19   16   23       1
    20   17   18      ar
    21   18   19      ar
    22   18   22       1
    23   19   20      ar
    24   20   21      ar
    25   23   24      ar
    26   23   25      ar
    27    3   26       1
    28    3   27       1
    29    3   28       1
    30   20   36       1
    31    7   29       1
    32    8   30       1
    33    8   31       1
    34   21   37       1
    35   22   38       1
    36   15   32       1
    37   15   33       1
    38   17   34       1
    39   19   35       1
@<TRIPOS>SUBSTRUCTURE
     1 PXG401      1 GROUP             4 A     PXG     0 **** PXG A 401
