@<TRIPOS>MOLECULE
5koi_NAD_1_ligand
   70    74     1     0     0
SMALL
NO_CHARGES


@<TRIPOS>ATOM
     1 PA         -15.8120    52.6340    -9.4400 P.3          1 NAD300   0.0000
     2 O1A        -16.4500    52.3830   -10.7620 O.co2        1 NAD300   0.0000
     3 O2A        -16.2250    53.9370    -8.7690 O.co2        1 NAD300  -1.0000
     4 O5B        -14.2090    52.5960    -9.4440 O.3          1 NAD300   0.0000
     5 C5B        -13.4260    51.6840   -10.2370 C.3          1 NAD300   0.0000
     6 C4B        -12.2980    52.5230   -10.7710 C.3          1 NAD300   0.0000
     7 O4B        -11.3790    51.7110   -11.5380 O.3          1 NAD300   0.0000
     8 C3B        -12.7450    53.6680   -11.7020 C.3          1 NAD300   0.0000
     9 O3B        -12.2640    54.9330   -11.2640 O.3          1 NAD300   0.0000
    10 C2B        -12.1020    53.3050   -13.0430 C.3          1 NAD300   0.0000
    11 O2B        -11.7420    54.4720   -13.7790 O.3          1 NAD300   0.0000
    12 C1B        -10.8790    52.5580   -12.5460 C.3          1 NAD300   0.0000
    13 N9A        -10.1750    51.7940   -13.5630 N.pl3        1 NAD300   0.0000
    14 C8A        -10.6250    50.7280   -14.2970 C.2          1 NAD300   0.0000
    15 N7A         -9.7980    50.3420   -15.2400 N.2          1 NAD300   0.0000
    16 C5A         -8.7260    51.2150   -15.1130 C.ar         1 NAD300   0.0000
    17 C6A         -7.5320    51.3610   -15.8400 C.ar         1 NAD300   0.0000
    18 N6A         -7.2180    50.6240   -16.9110 N.pl3        1 NAD300   0.0000
    19 N1A         -6.6790    52.3350   -15.4560 N.ar         1 NAD300   0.0000
    20 C2A         -7.0130    53.1130   -14.4220 C.ar         1 NAD300   0.0000
    21 N3A         -8.1180    53.0800   -13.6730 N.ar         1 NAD300   0.0000
    22 C4A         -8.9410    52.1040   -14.0750 C.ar         1 NAD300   0.0000
    23 O3         -16.0960    51.3760    -8.5020 O.3          1 NAD300   0.0000
    24 PN         -15.6000    50.9540    -7.0430 P.3          1 NAD300   0.0000
    25 O1N        -16.5900    49.9830    -6.5260 O.co2        1 NAD300   0.0000
    26 O2N        -15.3140    52.1760    -6.2620 O.co2        1 NAD300  -1.0000
    27 O5D        -14.2290    50.2110    -7.3660 O.3          1 NAD300   0.0000
    28 C5D        -13.0170    50.5780    -6.6720 C.3          1 NAD300   0.0000
    29 C4D        -12.3400    49.3370    -6.1470 C.3          1 NAD300   0.0000
    30 O4D        -13.0920    48.8080    -5.0290 O.3          1 NAD300   0.0000
    31 C3D        -12.2000    48.1780    -7.1490 C.3          1 NAD300   0.0000
    32 O3D        -10.9460    47.5190    -6.9860 O.3          1 NAD300   0.0000
    33 C2D        -13.3060    47.2220    -6.7070 C.3          1 NAD300   0.0000
    34 O2D        -13.0380    45.8690    -7.0570 O.3          1 NAD300   0.0000
    35 C1D        -13.2040    47.4220    -5.2060 C.3          1 NAD300   0.0000
    36 N1N        -14.3960    46.9240    -4.4100 N.ar         1 NAD300   1.0000
    37 C2N        -15.6260    47.2970    -4.8100 C.ar         1 NAD300   0.0000
    38 C3N        -16.7410    46.8160    -4.1520 C.ar         1 NAD300   0.0000
    39 C7N        -18.1330    47.2720    -4.4690 C.2          1 NAD300   0.0000
    40 O7N        -19.0940    46.6040    -4.0640 O.2          1 NAD300   0.0000
    41 N7N        -18.2790    48.3160    -5.2720 N.am         1 NAD300   0.0000
    42 C4N        -16.5590    45.9580    -3.0750 C.ar         1 NAD300   0.0000
    43 C5N        -15.2850    45.6130    -2.6730 C.ar         1 NAD300   0.0000
    44 C6N        -14.2050    46.1070    -3.3570 C.ar         1 NAD300   0.0000
    45 H5B1       -13.9720    51.3079   -10.9856 H            1 NAD300   0.0000
    46 H5B2       -13.0745    50.9369    -9.6728 H            1 NAD300   0.0000
    47 H4B        -11.8026    52.9181    -9.9974 H            1 NAD300   0.0000
    48 H3B        -13.7415    53.6825   -11.7847 H            1 NAD300   0.0000
    49 H5         -11.2643    54.9207   -11.2437 H            1 NAD300   0.0000
    50 H2B        -12.6976    52.7077   -13.5801 H            1 NAD300   0.0000
    51 H7         -11.3257    54.2031   -14.6476 H            1 NAD300   0.0000
    52 H1B        -10.2444    53.2122   -12.1346 H            1 NAD300   0.0000
    53 H8A        -11.5051    50.2838   -14.1291 H            1 NAD300   0.0000
    54 H6A1        -6.3514    50.7763   -17.3861 H            1 NAD300   0.0000
    55 H6A2        -7.8499    49.9207   -17.2367 H            1 NAD300   0.0000
    56 H2A         -6.3448    53.8151   -14.1758 H            1 NAD300   0.0000
    57 H5D1       -13.2410    51.1835    -5.9083 H            1 NAD300   0.0000
    58 H5D2       -12.4022    51.0510    -7.3031 H            1 NAD300   0.0000
    59 H4D        -11.4274    49.5875    -5.8239 H            1 NAD300   0.0000
    60 H3D        -12.3344    48.4867    -8.0906 H            1 NAD300   0.0000
    61 H17        -10.2657    48.1738    -6.6568 H            1 NAD300   0.0000
    62 H2D        -14.1976    47.5155    -7.0517 H            1 NAD300   0.0000
    63 H19        -13.7905    45.2888    -6.7455 H            1 NAD300   0.0000
    64 H1D        -12.3735    46.9780    -4.8695 H            1 NAD300   0.0000
    65 H2N        -15.7324    47.9221    -5.5833 H            1 NAD300   0.0000
    66 H7N1       -19.1947    48.6450    -5.5029 H            1 NAD300   0.0000
    67 H7N2       -17.4735    48.7749    -5.6470 H            1 NAD300   0.0000
    68 H4N        -17.3524    45.5898    -2.5903 H            1 NAD300   0.0000
    69 H5N        -15.1507    45.0073    -1.8887 H            1 NAD300   0.0000
    70 H6N        -13.2776    45.8613    -3.0748 H            1 NAD300   0.0000
@<TRIPOS>BOND
     1    1    2      ar
     2    1    3      ar
     3    1    4       1
     4    1   23       1
     5    4    5       1
     6    5    6       1
     7    6    7       1
     8    6    8       1
     9    7   12       1
    10    8    9       1
    11    8   10       1
    12   10   11       1
    13   10   12       1
    14   12   13       1
    15   13   14       1
    16   13   22       1
    17   14   15       2
    18   15   16       1
    19   16   17      ar
    20   16   22      ar
    21   17   18       1
    22   17   19      ar
    23   19   20      ar
    24   20   21      ar
    25   21   22      ar
    26   23   24       1
    27   24   25      ar
    28   24   26      ar
    29   24   27       1
    30   27   28       1
    31   28   29       1
    32   29   30       1
    33   29   31       1
    34   30   35       1
    35   31   32       1
    36   31   33       1
    37   33   34       1
    38   33   35       1
    39   35   36       1
    40   36   37      ar
    41   36   44      ar
    42   37   38      ar
    43   38   39       1
    44   38   42      ar
    45   39   40       2
    46   39   41      am
    47   42   43      ar
    48   43   44      ar
    49   44   70       1
    50    5   45       1
    51    5   46       1
    52    6   47       1
    53    8   48       1
    54    9   49       1
    55   10   50       1
    56   11   51       1
    57   12   52       1
    58   14   53       1
    59   18   54       1
    60   18   55       1
    61   20   56       1
    62   43   69       1
    63   28   57       1
    64   28   58       1
    65   29   59       1
    66   31   60       1
    67   32   61       1
    68   33   62       1
    69   34   63       1
    70   35   64       1
    71   37   65       1
    72   41   66       1
    73   41   67       1
    74   42   68       1
@<TRIPOS>SUBSTRUCTURE
     1 NAD300      1 GROUP             4 A     NAD     0 **** NAD A 300
