@<TRIPOS>MOLECULE
4xr9_TMP_1_ligand
   34    35     1     0     0
SMALL
NO_CHARGES


@<TRIPOS>ATOM
     1 P            6.8510    16.5050   -30.8000 P.3          1 TMP503   0.0000
     2 O1P          5.7060    16.9890   -31.6760 O.co2        1 TMP503   0.0000
     3 O2P          6.4190    16.1160   -29.3940 O.co2        1 TMP503  -1.0000
     4 O3P          7.7570    15.5020   -31.4820 O.co2        1 TMP503  -1.0000
     5 O5'          7.8230    17.7870   -30.5900 O.3          1 TMP503   0.0000
     6 C5'          7.3270    19.0710   -30.1920 C.3          1 TMP503   0.0000
     7 C4'          8.4670    20.0600   -29.8970 C.3          1 TMP503   0.0000
     8 O4'          9.2840    19.6230   -28.8010 O.3          1 TMP503   0.0000
     9 C3'          9.3930    20.2710   -31.0760 C.3          1 TMP503   0.0000
    10 O3'          9.6320    21.6790   -31.1900 O.3          1 TMP503   0.0000
    11 C2'         10.6940    19.5740   -30.6990 C.3          1 TMP503   0.0000
    12 C1'         10.6550    19.4230   -29.1820 C.3          1 TMP503   0.0000
    13 N1          11.1370    18.0930   -28.7240 N.pl3        1 TMP503   0.0000
    14 C2          12.4830    17.9030   -28.2450 C.2          1 TMP503   0.0000
    15 O2          13.3240    18.8420   -28.2260 O.2          1 TMP503   0.0000
    16 N3          12.8910    16.6880   -27.7960 N.pl3        1 TMP503   0.0000
    17 C4          12.0580    15.6390   -27.7550 C.2          1 TMP503   0.0000
    18 O4          12.4640    14.5370   -27.3370 O.2          1 TMP503   0.0000
    19 C5          10.6440    15.8130   -28.2110 C.2          1 TMP503   0.0000
    20 C5M          9.6560    14.6720   -28.1700 C.3          1 TMP503   0.0000
    21 C6          10.2560    17.0620   -28.6740 C.2          1 TMP503   0.0000
    22 H5'1         6.7722    18.9618   -29.3672 H            1 TMP503   0.0000
    23 H5'2         6.7604    19.4411   -30.9282 H            1 TMP503   0.0000
    24 H4'          8.0623    20.9417   -29.6544 H            1 TMP503   0.0000
    25 H3'          9.0062    19.8952   -31.9181 H            1 TMP503   0.0000
    26 H5           9.7955    21.9128   -32.1484 H            1 TMP503   0.0000
    27 H2'1        11.4793    20.1284   -30.9744 H            1 TMP503   0.0000
    28 H2'2        10.7491    18.6770   -31.1376 H            1 TMP503   0.0000
    29 H1'         11.2185    20.1371   -28.7666 H            1 TMP503   0.0000
    30 H9          13.8356    16.5733   -27.4886 H            1 TMP503   0.0000
    31 H5M1         8.7707    14.9852   -28.5137 H            1 TMP503   0.0000
    32 H5M2         9.9890    13.9220   -28.7415 H            1 TMP503   0.0000
    33 H5M3         9.5539    14.3531   -27.2277 H            1 TMP503   0.0000
    34 H13          9.3132    17.2046   -28.9753 H            1 TMP503   0.0000
@<TRIPOS>BOND
     1    1    2      ar
     2    1    3      ar
     3    1    4      ar
     4    1    5       1
     5    5    6       1
     6    6    7       1
     7    7    8       1
     8    7    9       1
     9    8   12       1
    10    9   10       1
    11    9   11       1
    12   11   12       1
    13   12   13       1
    14   13   14       1
    15   13   21       1
    16   14   15       2
    17   14   16       1
    18   16   17       1
    19   17   18       2
    20   17   19       1
    21   19   20       1
    22   19   21       2
    23   21   34       1
    24   20   33       1
    25    6   22       1
    26    6   23       1
    27    7   24       1
    28    9   25       1
    29   10   26       1
    30   11   27       1
    31   11   28       1
    32   12   29       1
    33   16   30       1
    34   20   31       1
    35   20   32       1
@<TRIPOS>SUBSTRUCTURE
     1 TMP503      1 GROUP             4 A     TMP     0 **** TMP A 503
