@<TRIPOS>MOLECULE
5esd_TDP_4_ligand
   43    44     1     0     0
SMALL
NO_CHARGES


@<TRIPOS>ATOM
     1 N1'         65.8130     8.5060    -9.2690 N.ar         1 TDP601   1.0000
     2 C2'         65.7260     7.5970   -10.2630 C.ar         1 TDP601   0.0000
     3 C2A         65.5540     6.1430    -9.9140 C.3          1 TDP601   0.0000
     4 N3'         65.7930     7.9680   -11.5600 N.ar         1 TDP601   0.0000
     5 C4'         65.9510     9.2680   -11.8830 C.ar         1 TDP601   0.0000
     6 N4'         66.0190     9.6440   -13.1790 N.pl3        1 TDP601   0.0000
     7 C5'         66.0480    10.2730   -10.7940 C.ar         1 TDP601   0.0000
     8 C6'         65.9660     9.8140    -9.4910 C.ar         1 TDP601   0.0000
     9 C35         66.2250    11.7490   -11.0780 C.3          1 TDP601   0.0000
    10 N3          67.5230    12.0400   -11.6980 N.2          1 TDP601   1.0000
    11 C2          67.6500    12.2250   -13.0250 C.2          1 TDP601   0.0000
    12 S1          69.2650    12.5600   -13.5800 S.3          1 TDP601   0.0000
    13 C5          69.8190    12.4330   -11.9450 C.2          1 TDP601   0.0000
    14 C4          68.6900    12.1380   -11.0240 C.2          1 TDP601   0.0000
    15 C4A         68.8370    11.9770    -9.5370 C.3          1 TDP601   0.0000
    16 C5A         71.3060    12.6560   -11.7260 C.3          1 TDP601   0.0000
    17 C5B         72.1470    11.5210   -12.3100 C.3          1 TDP601   0.0000
    18 O5G         73.5290    11.6800   -11.9690 O.3          1 TDP601   0.0000
    19 P1          74.6790    10.8710   -12.7550 P.3          1 TDP601   0.0000
    20 O11         74.8160    11.6160   -14.1810 O.3          1 TDP601   0.0000
    21 O12         74.2110     9.4590   -13.0030 O.co2        1 TDP601   0.0000
    22 O13         75.9640    11.0020   -11.9810 O.co2        1 TDP601  -1.0000
    23 P2          75.3990    13.1120   -14.3860 P.3          1 TDP601   0.0000
    24 O21         75.9580    13.0650   -15.7810 O.co2        1 TDP601   0.0000
    25 O22         76.4580    13.2890   -13.3250 O.co2        1 TDP601  -1.0000
    26 O23         74.2360    14.0410   -14.1870 O.co2        1 TDP601  -1.0000
    27 H2A1        65.5064     5.6020   -10.7537 H            1 TDP601   0.0000
    28 H2A2        66.3318     5.8378    -9.3645 H            1 TDP601   0.0000
    29 H2A3        64.7095     6.0231    -9.3920 H            1 TDP601   0.0000
    30 H4'1        66.1362    10.6089   -13.4142 H            1 TDP601   0.0000
    31 H4'2        65.9521     8.9574   -13.9030 H            1 TDP601   0.0000
    32 H6'         66.0207    10.4542    -8.7247 H            1 TDP601   0.0000
    33 H7          66.1586    12.2533   -10.2170 H            1 TDP601   0.0000
    34 H8          65.4981    12.0479   -11.6963 H            1 TDP601   0.0000
    35 H9          66.8702    12.1735   -13.6490 H            1 TDP601   0.0000
    36 H4A1        69.7968    12.0946    -9.2823 H            1 TDP601   0.0000
    37 H4A2        68.2816    12.6655    -9.0707 H            1 TDP601   0.0000
    38 H4A3        68.5304    11.0638    -9.2687 H            1 TDP601   0.0000
    39 H5A1        71.4823    12.7160   -10.7435 H            1 TDP601   0.0000
    40 H5A2        71.5720    13.5140   -12.1653 H            1 TDP601   0.0000
    41 H5B1        72.0533    11.5231   -13.3056 H            1 TDP601   0.0000
    42 H5B2        71.8183    10.6495   -11.9461 H            1 TDP601   0.0000
    43 H1'         65.7605     8.1854    -8.3232 H            1 TDP601   0.0000
@<TRIPOS>BOND
     1    1    2      ar
     2    1    8      ar
     3    2    3       1
     4    2    4      ar
     5    4    5      ar
     6    5    6       1
     7    5    7      ar
     8    7    8      ar
     9    7    9       1
    10    9   10       1
    11   10   11       2
    12   10   14       1
    13   11   12       1
    14   12   13       1
    15   13   14       2
    16   13   16       1
    17   14   15       1
    18   16   17       1
    19   17   18       1
    20   18   19       1
    21   19   20       1
    22   19   21      ar
    23   19   22      ar
    24   20   23       1
    25   23   24      ar
    26   23   25      ar
    27   23   26      ar
    28    3   27       1
    29    3   28       1
    30    3   29       1
    31    6   30       1
    32    6   31       1
    33    8   32       1
    34    9   33       1
    35    9   34       1
    36   11   35       1
    37   15   36       1
    38   15   37       1
    39   15   38       1
    40   16   39       1
    41   16   40       1
    42   17   41       1
    43   17   42       1
    44    1   43       1
@<TRIPOS>SUBSTRUCTURE
     1 TDP601      1 GROUP             4 D     TDP     0 **** TDP D 601
