@<TRIPOS>MOLECULE
3mn7_ATP_1_ligand
   43    45     1     0     0
SMALL
NO_CHARGES


@<TRIPOS>ATOM
     1 PG         -34.8520    32.0710    -3.3510 P.3          1 ATP800   0.0000
     2 O1G        -33.7050    31.0990    -3.4820 O.co2        1 ATP800   0.0000
     3 O2G        -35.7910    31.7410    -2.2150 O.co2        1 ATP800  -1.0000
     4 O3G        -34.4390    33.5220    -3.4140 O.co2        1 ATP800  -1.0000
     5 PB         -37.3040    31.8720    -4.8040 P.3          1 ATP800   0.0000
     6 O1B        -37.8790    32.7100    -3.6880 O.co2        1 ATP800   0.0000
     7 O2B        -37.6840    32.1800    -6.2320 O.co2        1 ATP800  -1.0000
     8 O3B        -35.6920    31.8620    -4.7140 O.3          1 ATP800   0.0000
     9 PA         -39.1620    29.7980    -4.3400 P.3          1 ATP800   0.0000
    10 O1A        -39.4230    29.6050    -2.8650 O.co2        1 ATP800   0.0000
    11 O2A        -40.0830    30.6630    -5.1640 O.co2        1 ATP800  -1.0000
    12 O3A        -37.6520    30.3260    -4.5200 O.3          1 ATP800   0.0000
    13 O5'        -39.1030    28.3460    -5.0320 O.3          1 ATP800   0.0000
    14 C5'        -38.7980    28.2080    -6.4180 C.3          1 ATP800   0.0000
    15 C4'        -37.9530    26.9570    -6.6210 C.3          1 ATP800   0.0000
    16 O4'        -38.6020    25.8310    -6.0220 O.3          1 ATP800   0.0000
    17 C3'        -37.7640    26.6430    -8.0960 C.3          1 ATP800   0.0000
    18 O3'        -36.3740    26.4180    -8.3470 O.3          1 ATP800   0.0000
    19 C2'        -38.5390    25.3600    -8.3360 C.3          1 ATP800   0.0000
    20 O2'        -37.8440    24.4730    -9.2160 O.3          1 ATP800   0.0000
    21 C1'        -38.6910    24.7490    -6.9520 C.3          1 ATP800   0.0000
    22 N9         -39.9830    24.0270    -6.8230 N.pl3        1 ATP800   0.0000
    23 C8         -41.2170    24.5320    -7.0230 C.2          1 ATP800   0.0000
    24 N7         -42.1720    23.5880    -6.8200 N.2          1 ATP800   0.0000
    25 C5         -41.5450    22.4470    -6.4800 C.ar         1 ATP800   0.0000
    26 C6         -41.9480    21.0610    -6.1330 C.ar         1 ATP800   0.0000
    27 N6         -43.2540    20.7010    -6.1040 N.pl3        1 ATP800   0.0000
    28 N1         -40.9700    20.1690    -5.8410 N.ar         1 ATP800   0.0000
    29 C2         -39.6660    20.5110    -5.8650 C.ar         1 ATP800   0.0000
    30 N3         -39.2290    21.7480    -6.1740 N.ar         1 ATP800   0.0000
    31 C4         -40.1020    22.7410    -6.4870 C.ar         1 ATP800   0.0000
    32 H5'1       -38.2889    29.0101    -6.7302 H            1 ATP800   0.0000
    33 H5'2       -39.6465    28.1273    -6.9410 H            1 ATP800   0.0000
    34 H4'        -37.0586    27.0891    -6.1937 H            1 ATP800   0.0000
    35 H3'        -38.1150    27.3849    -8.6673 H            1 ATP800   0.0000
    36 H5         -35.9341    27.2836    -8.5861 H            1 ATP800   0.0000
    37 H2'        -39.4402    25.5739    -8.7128 H            1 ATP800   0.0000
    38 H7         -38.5057    23.9250    -9.7277 H            1 ATP800   0.0000
    39 H1'        -37.9387    24.1108    -6.7886 H            1 ATP800   0.0000
    40 H9         -41.4046    25.4783    -7.2865 H            1 ATP800   0.0000
    41 H10        -43.5090    19.7632    -5.8683 H            1 ATP800   0.0000
    42 H11        -43.9628    21.3731    -6.3183 H            1 ATP800   0.0000
    43 H12        -38.9880    19.8106    -5.6420 H            1 ATP800   0.0000
@<TRIPOS>BOND
     1    1    2      ar
     2    1    3      ar
     3    1    4      ar
     4    1    8       1
     5    5    6      ar
     6    5    7      ar
     7    5    8       1
     8    5   12       1
     9    9   10      ar
    10    9   11      ar
    11    9   12       1
    12    9   13       1
    13   13   14       1
    14   14   15       1
    15   15   16       1
    16   15   17       1
    17   16   21       1
    18   17   18       1
    19   17   19       1
    20   19   20       1
    21   19   21       1
    22   21   22       1
    23   22   23       1
    24   22   31       1
    25   23   24       2
    26   24   25       1
    27   25   26      ar
    28   25   31      ar
    29   26   27       1
    30   26   28      ar
    31   28   29      ar
    32   29   30      ar
    33   30   31      ar
    34   29   43       1
    35   27   42       1
    36   27   41       1
    37   23   40       1
    38   14   32       1
    39   14   33       1
    40   15   34       1
    41   17   35       1
    42   18   36       1
    43   19   37       1
    44   20   38       1
    45   21   39       1
@<TRIPOS>SUBSTRUCTURE
     1 ATP800      1 GROUP             4 A     ATP     0 **** ATP A 800
