@<TRIPOS>MOLECULE
4zob_LGC_2_ligand
   22    22     1     0     0
SMALL
NO_CHARGES


@<TRIPOS>ATOM
     1 C1         -15.0190   -63.4170   -43.1760 C.2          1 LGC802   0.0000
     2 C2         -14.5860   -62.3830   -44.1800 C.3          1 LGC802   0.0000
     3 O5         -14.3160   -64.7030   -43.0220 O.3          1 LGC802   0.0000
     4 O1         -15.9770   -63.1590   -42.4500 O.2          1 LGC802   0.0000
     5 O2         -15.7590   -61.7130   -44.6520 O.3          1 LGC802   0.0000
     6 C3         -13.7610   -63.0190   -45.2990 C.3          1 LGC802   0.0000
     7 O3         -13.2880   -61.9910   -46.1810 O.3          1 LGC802   0.0000
     8 C4         -12.6130   -63.7840   -44.6300 C.3          1 LGC802   0.0000
     9 O4         -11.6200   -64.2550   -45.5560 O.3          1 LGC802   0.0000
    10 C5         -13.1630   -64.9900   -43.8540 C.3          1 LGC802   0.0000
    11 C6         -12.0620   -65.6410   -43.0020 C.3          1 LGC802   0.0000
    12 O6         -11.7630   -64.9000   -41.8180 O.3          1 LGC802   0.0000
    13 H1         -14.0112   -61.7129   -43.7103 H            1 LGC802   0.0000
    14 H2         -16.2253   -61.2758   -43.8830 H            1 LGC802   0.0000
    15 H3         -14.3333   -63.6593   -45.8113 H            1 LGC802   0.0000
    16 H4         -12.7478   -62.4036   -46.9144 H            1 LGC802   0.0000
    17 H5         -12.1666   -63.1705   -43.9785 H            1 LGC802   0.0000
    18 H6         -10.7299   -64.2888   -45.1016 H            1 LGC802   0.0000
    19 H7         -13.4504   -65.6681   -44.5304 H            1 LGC802   0.0000
    20 H8         -11.2307   -65.7099   -43.5536 H            1 LGC802   0.0000
    21 H9         -12.3633   -66.5571   -42.7373 H            1 LGC802   0.0000
    22 H10        -11.4519   -63.9832   -42.0682 H            1 LGC802   0.0000
@<TRIPOS>BOND
     1    1    2       1
     2    1    3       1
     3    1    4       2
     4    2    5       1
     5    2    6       1
     6    3   10       1
     7    6    7       1
     8    6    8       1
     9    8    9       1
    10    8   10       1
    11   10   11       1
    12   11   12       1
    13    2   13       1
    14    5   14       1
    15    6   15       1
    16    7   16       1
    17    8   17       1
    18    9   18       1
    19   10   19       1
    20   11   20       1
    21   11   21       1
    22   12   22       1
@<TRIPOS>SUBSTRUCTURE
     1 LGC802      1 GROUP             4 A     LGC     0 **** LGC A 802
