@<TRIPOS>MOLECULE
3ih0_ANP_1_ligand
   44    46     1     0     0
SMALL
NO_CHARGES


@<TRIPOS>ATOM
     1 PG           5.1880     7.6360    19.4100 P.3          1 ANP900   0.0000
     2 O1G          5.5670     6.5190    20.3620 O.co2        1 ANP900   0.0000
     3 O2G          3.9600     8.4120    19.8110 O.co2        1 ANP900  -1.0000
     4 O3G          5.0580     7.1300    17.9940 O.co2        1 ANP900  -1.0000
     5 PB           7.9600     8.6670    20.3290 P.3          1 ANP900   0.0000
     6 O1B          8.3570     9.9940    20.9200 O.co2        1 ANP900   0.0000
     7 O2B          7.8270     7.4850    21.2080 O.co2        1 ANP900  -1.0000
     8 N3B          6.4850     8.7890    19.3890 N.3          1 ANP900   0.0000
     9 PA           9.3790     9.0770    17.7580 P.3          1 ANP900   0.0000
    10 O1A          9.4270     8.1020    16.6040 O.co2        1 ANP900   0.0000
    11 O2A          8.5060    10.2790    17.6340 O.co2        1 ANP900  -1.0000
    12 O3A          9.0240     8.2970    19.1640 O.3          1 ANP900   0.0000
    13 O5'         10.8560     9.5740    18.1520 O.3          1 ANP900   0.0000
    14 C5'         11.9610     8.6930    18.3990 C.3          1 ANP900   0.0000
    15 C4'         13.2780     9.4620    18.2380 C.3          1 ANP900   0.0000
    16 O4'         13.9180     8.8530    17.1230 O.3          1 ANP900   0.0000
    17 C3'         13.1940    10.9520    17.8440 C.3          1 ANP900   0.0000
    18 O3'         13.1160    11.8440    18.9250 O.3          1 ANP900   0.0000
    19 C2'         14.4010    11.1400    17.0080 C.3          1 ANP900   0.0000
    20 O2'         15.5390    11.5270    17.7810 O.3          1 ANP900   0.0000
    21 C1'         14.6010     9.8110    16.3240 C.3          1 ANP900   0.0000
    22 N9          14.0010     9.9280    14.9430 N.pl3        1 ANP900   0.0000
    23 C8          12.7210     9.6760    14.5150 C.2          1 ANP900   0.0000
    24 N7          12.5770     9.9020    13.1840 N.2          1 ANP900   0.0000
    25 C5          13.7720    10.3020    12.7230 C.ar         1 ANP900   0.0000
    26 C6          14.3690    10.7160    11.4080 C.ar         1 ANP900   0.0000
    27 N6          13.6150    10.7360    10.2930 N.pl3        1 ANP900   0.0000
    28 N1          15.7140    11.0720    11.3760 N.ar         1 ANP900   0.0000
    29 C2          16.5290    11.0640    12.4980 C.ar         1 ANP900   0.0000
    30 N3          16.0490    10.7010    13.7250 N.ar         1 ANP900   0.0000
    31 C4          14.7170    10.3180    13.8900 C.ar         1 ANP900   0.0000
    32 H3B          6.7810     8.8388    18.4351 H            1 ANP900   0.0000
    33 H5'1        11.9356     7.9361    17.7460 H            1 ANP900   0.0000
    34 H5'2        11.8977     8.3326    19.3296 H            1 ANP900   0.0000
    35 H4'         13.8407     9.3547    19.0577 H            1 ANP900   0.0000
    36 H3'         12.3869    11.0818    17.2680 H            1 ANP900   0.0000
    37 H6          12.5991    12.6551    18.6512 H            1 ANP900   0.0000
    38 H2'         14.2178    11.8407    16.3185 H            1 ANP900   0.0000
    39 H8          15.4637    11.1420    18.7008 H            1 ANP900   0.0000
    40 H1'         15.5744     9.5893    16.2659 H            1 ANP900   0.0000
    41 H10         11.9826     9.3632    15.1125 H            1 ANP900   0.0000
    42 H11         14.0190    11.0127     9.4211 H            1 ANP900   0.0000
    43 H12         12.6509    10.4742    10.3366 H            1 ANP900   0.0000
    44 H13         17.4888    11.3296    12.4073 H            1 ANP900   0.0000
@<TRIPOS>BOND
     1    1    2      ar
     2    1    3      ar
     3    1    4      ar
     4    1    8       1
     5    5    6      ar
     6    5    7      ar
     7    5    8       1
     8    5   12       1
     9    9   10      ar
    10    9   11      ar
    11    9   12       1
    12    9   13       1
    13   13   14       1
    14   14   15       1
    15   15   16       1
    16   15   17       1
    17   16   21       1
    18   17   18       1
    19   17   19       1
    20   19   20       1
    21   19   21       1
    22   21   22       1
    23   22   23       1
    24   22   31       1
    25   23   24       2
    26   24   25       1
    27   25   26      ar
    28   25   31      ar
    29   26   27       1
    30   26   28      ar
    31   28   29      ar
    32   29   30      ar
    33   30   31      ar
    34   29   44       1
    35   27   43       1
    36   27   42       1
    37    8   32       1
    38   23   41       1
    39   14   33       1
    40   14   34       1
    41   15   35       1
    42   17   36       1
    43   18   37       1
    44   19   38       1
    45   20   39       1
    46   21   40       1
@<TRIPOS>SUBSTRUCTURE
     1 ANP900      1 GROUP             4 A     ANP     0 **** ANP A 900
