@<TRIPOS>MOLECULE
4k39_SAM_1_ligand
   49    51     1     0     0
SMALL
NO_CHARGES


@<TRIPOS>ATOM
     1 N           20.6450    29.4120    44.8400 N.3          1 SAM504   0.0000
     2 CA          19.6380    28.6410    44.1760 C.3          1 SAM504   0.0000
     3 C           19.4480    27.3480    44.9360 C.2          1 SAM504   0.0000
     4 O           20.0980    27.0910    45.9500 O.co2        1 SAM504   0.0000
     5 OXT         18.5920    26.5950    44.4950 O.co2        1 SAM504  -1.0000
     6 CB          19.9090    28.4170    42.6840 C.3          1 SAM504   0.0000
     7 CG          21.3820    28.1600    42.3640 C.3          1 SAM504   0.0000
     8 SD          21.9360    26.7270    43.0440 S.3          1 SAM504   1.0000
     9 CE          23.5370    26.7020    43.3580 C.3          1 SAM504   0.0000
    10 C5'         21.4210    25.5830    41.9310 C.3          1 SAM504   0.0000
    11 C4'         21.3500    24.1420    42.4820 C.3          1 SAM504   0.0000
    12 O4'         22.6580    23.5790    42.3250 O.3          1 SAM504   0.0000
    13 C3'         21.0360    24.0910    43.9650 C.3          1 SAM504   0.0000
    14 O3'         20.2500    22.9880    44.3560 O.3          1 SAM504   0.0000
    15 C2'         22.3850    23.8840    44.5780 C.3          1 SAM504   0.0000
    16 O2'         22.1670    23.2470    45.7920 O.3          1 SAM504   0.0000
    17 C1'         23.0410    22.9880    43.5300 C.3          1 SAM504   0.0000
    18 N9          24.5020    22.8340    43.7280 N.pl3        1 SAM504   0.0000
    19 C8          25.2890    23.7070    44.3290 C.2          1 SAM504   0.0000
    20 N7          26.5770    23.2940    44.4080 N.2          1 SAM504   0.0000
    21 C5          26.6390    22.0860    43.8510 C.ar         1 SAM504   0.0000
    22 C6          27.7040    21.0800    43.6230 C.ar         1 SAM504   0.0000
    23 N6          28.9570    21.2980    44.0130 N.pl3        1 SAM504   0.0000
    24 N1          27.3720    19.9410    43.0110 N.ar         1 SAM504   0.0000
    25 C2          26.1120    19.7160    42.6330 C.ar         1 SAM504   0.0000
    26 N3          25.0930    20.5710    42.8070 N.ar         1 SAM504   0.0000
    27 C4          25.2730    21.7790    43.3990 C.ar         1 SAM504   0.0000
    28 H1          21.1280    29.9765    44.1706 H            1 SAM504   0.0000
    29 HA          18.7815    29.1524    44.2462 H            1 SAM504   0.0000
    30 HB1         19.6134    29.2303    42.1829 H            1 SAM504   0.0000
    31 HB2         19.3766    27.6268    42.3807 H            1 SAM504   0.0000
    32 HG1         21.9268    28.9184    42.7218 H            1 SAM504   0.0000
    33 HG2         21.4923    28.1096    41.3714 H            1 SAM504   0.0000
    34 HE1         23.7843    25.8199    43.7588 H            1 SAM504   0.0000
    35 HE2         24.0456    26.8360    42.5075 H            1 SAM504   0.0000
    36 HE3         23.7622    27.4348    44.0001 H            1 SAM504   0.0000
    37 H5'1        22.0554    25.5912    41.1580 H            1 SAM504   0.0000
    38 H5'2        20.5081    25.8424    41.6157 H            1 SAM504   0.0000
    39 H4'         20.6793    23.6076    41.9677 H            1 SAM504   0.0000
    40 H3'         20.6287    24.9499    44.2754 H            1 SAM504   0.0000
    41 H14         19.3987    23.3143    44.7668 H            1 SAM504   0.0000
    42 H2'         22.8785    24.7461    44.6928 H            1 SAM504   0.0000
    43 H16         21.3432    22.6835    45.7296 H            1 SAM504   0.0000
    44 H1'         22.6199    22.0826    43.5833 H            1 SAM504   0.0000
    45 H18         24.9676    24.5829    44.6889 H            1 SAM504   0.0000
    46 H19         29.6594    20.6054    43.8489 H            1 SAM504   0.0000
    47 H20         29.1965    22.1545    44.4702 H            1 SAM504   0.0000
    48 H21         25.9123    18.8439    42.1862 H            1 SAM504   0.0000
    49 H22         20.2163    30.0008    45.5252 H            1 SAM504   0.0000
@<TRIPOS>BOND
     1    1    2       1
     2    2    3       1
     3    2    6       1
     4    3    4      ar
     5    3    5      ar
     6    6    7       1
     7    7    8       1
     8    8    9       1
     9    8   10       1
    10   10   11       1
    11   11   12       1
    12   11   13       1
    13   12   17       1
    14   13   14       1
    15   13   15       1
    16   15   16       1
    17   15   17       1
    18   17   18       1
    19   18   19       1
    20   18   27       1
    21   19   20       2
    22   20   21       1
    23   21   22      ar
    24   21   27      ar
    25   22   23       1
    26   22   24      ar
    27   24   25      ar
    28   25   26      ar
    29   26   27      ar
    30   25   48       1
    31    1   28       1
    32    2   29       1
    33    1   49       1
    34    6   30       1
    35    6   31       1
    36    7   32       1
    37    7   33       1
    38    9   34       1
    39    9   35       1
    40    9   36       1
    41   10   37       1
    42   10   38       1
    43   11   39       1
    44   13   40       1
    45   14   41       1
    46   15   42       1
    47   16   43       1
    48   17   44       1
    49   19   45       1
    50   23   46       1
    51   23   47       1
@<TRIPOS>SUBSTRUCTURE
     1 SAM504      1 GROUP             4 A     SAM     0 **** SAM A 504
