@<TRIPOS>MOLECULE
2ywv_ADP_1_ligand
   39    41     1     0     0
SMALL
NO_CHARGES


@<TRIPOS>ATOM
     1 PB           6.5770     0.5960     9.1220 P.3          1 ADP600   0.0000
     2 O1B          6.5210    -0.7480     9.7100 O.co2        1 ADP600   0.0000
     3 O2B          5.7330     1.0800     7.8880 O.co2        1 ADP600  -1.0000
     4 O3B          7.8560     1.4990     9.4610 O.co2        1 ADP600  -1.0000
     5 PA           6.8330    -1.2500     7.0720 P.3          1 ADP600   0.0000
     6 O1A          6.1940    -0.8050     5.8310 O.co2        1 ADP600   0.0000
     7 O2A          7.1600    -2.7830     7.3510 O.co2        1 ADP600  -1.0000
     8 O3A          7.5860    -0.1210     8.0130 O.3          1 ADP600   0.0000
     9 O5'          8.2630    -1.3380     6.2320 O.3          1 ADP600   0.0000
    10 C5'          8.4640    -0.2790     5.2360 C.3          1 ADP600   0.0000
    11 C4'          9.3590     0.8440     5.7950 C.3          1 ADP600   0.0000
    12 O4'         10.3340     1.2790     4.7990 O.3          1 ADP600   0.0000
    13 C3'          8.5300     2.0880     6.1700 C.3          1 ADP600   0.0000
    14 O3'          9.0720     2.7290     7.3360 O.3          1 ADP600   0.0000
    15 C2'          8.6180     2.9510     4.9210 C.3          1 ADP600   0.0000
    16 O2'          8.3550     4.3290     5.2220 O.3          1 ADP600   0.0000
    17 C1'         10.0500     2.6720     4.4460 C.3          1 ADP600   0.0000
    18 N9          10.2030     2.8330     2.9960 N.pl3        1 ADP600   0.0000
    19 C8           9.3260     2.4580     2.0070 C.2          1 ADP600   0.0000
    20 N7           9.8360     2.7190     0.8320 N.2          1 ADP600   0.0000
    21 C5          11.0770     3.2410     0.9950 C.ar         1 ADP600   0.0000
    22 C6          12.1260     3.6510     0.1300 C.ar         1 ADP600   0.0000
    23 N6          12.0060     3.5170    -1.2360 N.pl3        1 ADP600   0.0000
    24 N1          13.2530     4.1690     0.6740 N.ar         1 ADP600   0.0000
    25 C2          13.4190     4.2570     2.0010 C.ar         1 ADP600   0.0000
    26 N3          12.4400     3.9290     2.8430 N.ar         1 ADP600   0.0000
    27 C4          11.2960     3.3710     2.3920 C.ar         1 ADP600   0.0000
    28 H5'1         7.5759     0.1057     4.9842 H            1 ADP600   0.0000
    29 H5'2         8.8993    -0.6710     4.4255 H            1 ADP600   0.0000
    30 H4'          9.8405     0.5107     6.6056 H            1 ADP600   0.0000
    31 H3'          7.5794     1.8261     6.3365 H            1 ADP600   0.0000
    32 H5           8.6467     2.3450     8.1555 H            1 ADP600   0.0000
    33 H2'          7.9654     2.6239     4.2375 H            1 ADP600   0.0000
    34 H7           7.5615     4.6390     4.6983 H            1 ADP600   0.0000
    35 H1'         10.6876     3.2776     4.9221 H            1 ADP600   0.0000
    36 H9           8.4285     2.0456     2.1633 H            1 ADP600   0.0000
    37 H10         12.7518     3.8095    -1.8345 H            1 ADP600   0.0000
    38 H11         11.1731     3.1273    -1.6289 H            1 ADP600   0.0000
    39 H12         14.2941     4.5748     2.3660 H            1 ADP600   0.0000
@<TRIPOS>BOND
     1    1    2      ar
     2    1    3      ar
     3    1    4      ar
     4    1    8       1
     5    5    6      ar
     6    5    7      ar
     7    5    8       1
     8    5    9       1
     9    9   10       1
    10   10   11       1
    11   11   12       1
    12   11   13       1
    13   12   17       1
    14   13   14       1
    15   13   15       1
    16   15   16       1
    17   15   17       1
    18   17   18       1
    19   18   19       1
    20   18   27       1
    21   19   20       2
    22   20   21       1
    23   21   22      ar
    24   21   27      ar
    25   22   23       1
    26   22   24      ar
    27   24   25      ar
    28   25   26      ar
    29   26   27      ar
    30   25   39       1
    31   23   38       1
    32   23   37       1
    33   10   28       1
    34   10   29       1
    35   11   30       1
    36   13   31       1
    37   14   32       1
    38   15   33       1
    39   16   34       1
    40   17   35       1
    41   19   36       1
@<TRIPOS>SUBSTRUCTURE
     1 ADP600      1 GROUP             4 A     ADP     0 **** ADP A 600
