@<TRIPOS>MOLECULE
2tpr_FAD_1_ligand
   84    89     1     0     0
SMALL
NO_CHARGES


@<TRIPOS>ATOM
     1 PA          29.6030   -27.8740    16.2340 P.3          1 FAD500   0.0000
     2 O1A         28.4260   -27.5240    17.0610 O.co2        1 FAD500   0.0000
     3 O2A         29.9810   -27.0070    15.0850 O.co2        1 FAD500  -1.0000
     4 O5B         29.3050   -29.3140    15.6570 O.3          1 FAD500   0.0000
     5 C5B         28.9780   -30.4120    16.4830 C.3          1 FAD500   0.0000
     6 C4B         28.4050   -31.4710    15.6190 C.3          1 FAD500   0.0000
     7 O4B         28.3370   -32.6920    16.3730 O.3          1 FAD500   0.0000
     8 C3B         26.9490   -31.0800    15.2450 C.3          1 FAD500   0.0000
     9 O3B         26.7790   -31.0320    13.8210 O.3          1 FAD500   0.0000
    10 C2B         26.1160   -32.1950    15.8980 C.3          1 FAD500   0.0000
    11 O2B         24.9950   -32.5440    15.1000 O.3          1 FAD500   0.0000
    12 C1B         27.1020   -33.3570    16.0410 C.3          1 FAD500   0.0000
    13 N9A         26.7120   -34.2560    17.1320 N.pl3        1 FAD500   0.0000
    14 C8A         26.2740   -33.9430    18.4080 C.2          1 FAD500   0.0000
    15 N7A         26.1940   -34.9900    19.1980 N.2          1 FAD500   0.0000
    16 C5A         26.5230   -36.0670    18.3750 C.ar         1 FAD500   0.0000
    17 C6A         26.5270   -37.4550    18.5930 C.ar         1 FAD500   0.0000
    18 N6A         26.2180   -38.0290    19.7620 N.pl3        1 FAD500   0.0000
    19 N1A         26.8550   -38.2280    17.5580 N.ar         1 FAD500   0.0000
    20 C2A         27.0960   -37.6540    16.3840 C.ar         1 FAD500   0.0000
    21 N3A         27.1080   -36.3770    16.0440 N.ar         1 FAD500   0.0000
    22 C4A         26.8370   -35.6250    17.1200 C.ar         1 FAD500   0.0000
    23 N1          30.6080   -18.6340    16.4400 N.2          1 FAD500   0.0000
    24 C2          31.3350   -17.7220    15.7410 C.2          1 FAD500   0.0000
    25 O2          32.5440   -17.8120    15.7140 O.2          1 FAD500   0.0000
    26 N3          30.7060   -16.6730    15.0560 N.pl3        1 FAD500   0.0000
    27 C4          29.3590   -16.4890    15.0210 C.2          1 FAD500   0.0000
    28 O4          28.8550   -15.5930    14.3530 O.2          1 FAD500   0.0000
    29 C4X         28.5680   -17.4680    15.8080 C.2          1 FAD500   0.0000
    30 N5          27.2700   -17.3810    15.8020 N.2          1 FAD500   0.0000
    31 C5X         26.5590   -18.3470    16.4670 C.ar         1 FAD500   0.0000
    32 C6          25.1430   -18.2760    16.4590 C.ar         1 FAD500   0.0000
    33 C7          24.3410   -19.2670    16.9870 C.ar         1 FAD500   0.0000
    34 C7M         22.8400   -19.1690    16.8830 C.3          1 FAD500   0.0000
    35 C8          24.9800   -20.3810    17.6160 C.ar         1 FAD500   0.0000
    36 C8M         24.1690   -21.4970    18.2180 C.3          1 FAD500   0.0000
    37 C9          26.3530   -20.4480    17.6480 C.ar         1 FAD500   0.0000
    38 C9A         27.1710   -19.4440    17.0850 C.ar         1 FAD500   0.0000
    39 N10         28.5700   -19.4670    17.1060 N.pl3        1 FAD500   0.0000
    40 C10         29.3060   -18.5090    16.4840 C.2          1 FAD500   0.0000
    41 C1'         29.2950   -20.5220    17.8260 C.3          1 FAD500   0.0000
    42 C2'         29.7390   -21.5580    16.8160 C.3          1 FAD500   0.0000
    43 O2'         28.5730   -21.9990    16.1230 O.3          1 FAD500   0.0000
    44 C3'         30.2920   -22.7950    17.5760 C.3          1 FAD500   0.0000
    45 O3'         31.2150   -22.3190    18.5750 O.3          1 FAD500   0.0000
    46 C4'         31.0970   -23.8370    16.7650 C.3          1 FAD500   0.0000
    47 O4'         30.3250   -24.4400    15.7410 O.3          1 FAD500   0.0000
    48 C5'         31.6030   -24.9660    17.6460 C.3          1 FAD500   0.0000
    49 O5'         32.2250   -25.9670    16.8650 O.3          1 FAD500   0.0000
    50 P           32.3040   -27.4430    17.4050 P.3          1 FAD500   0.0000
    51 O1P         33.2280   -28.1660    16.5140 O.co2        1 FAD500   0.0000
    52 O2P         32.5880   -27.3870    18.8550 O.co2        1 FAD500  -1.0000
    53 O3P         30.8430   -28.0810    17.2660 O.3          1 FAD500   0.0000
    54 H5B1        28.3073   -30.1333    17.1703 H            1 FAD500   0.0000
    55 H5B2        29.8005   -30.7522    16.9387 H            1 FAD500   0.0000
    56 H4B         28.9600   -31.5944    14.7963 H            1 FAD500   0.0000
    57 H3B         26.7161   -30.1954    15.6490 H            1 FAD500   0.0000
    58 H5          26.9800   -31.9305    13.4308 H            1 FAD500   0.0000
    59 H2B         25.8079   -31.9005    16.8026 H            1 FAD500   0.0000
    60 H7          25.2509   -33.2747    14.4671 H            1 FAD500   0.0000
    61 H1B         27.1882   -33.8586    15.1802 H            1 FAD500   0.0000
    62 H8A         26.0422   -33.0147    18.6986 H            1 FAD500   0.0000
    63 H6A1        26.2402   -39.0247    19.8514 H            1 FAD500   0.0000
    64 H6A2        25.9650   -37.4621    20.5460 H            1 FAD500   0.0000
    65 H2A         27.3008   -38.2893    15.6394 H            1 FAD500   0.0000
    66 H13         31.2824   -16.0209    14.5635 H            1 FAD500   0.0000
    67 H14         24.7066   -17.4730    16.0531 H            1 FAD500   0.0000
    68 H7M1        22.4230   -19.9680    17.3162 H            1 FAD500   0.0000
    69 H7M2        22.5274   -18.3386    17.3442 H            1 FAD500   0.0000
    70 H7M3        22.5741   -19.1354    15.9196 H            1 FAD500   0.0000
    71 H8M1        24.7835   -22.1821    18.6091 H            1 FAD500   0.0000
    72 H8M2        23.5785   -21.1298    18.9367 H            1 FAD500   0.0000
    73 H8M3        23.6062   -21.9205    17.5081 H            1 FAD500   0.0000
    74 H21         26.7875   -21.2354    18.0853 H            1 FAD500   0.0000
    75 H1'1        28.6936   -20.9449    18.5039 H            1 FAD500   0.0000
    76 H1'2        30.0931   -20.1323    18.2855 H            1 FAD500   0.0000
    77 H2'         30.4186   -21.1841    16.1849 H            1 FAD500   0.0000
    78 H25         28.6959   -22.9486    15.8345 H            1 FAD500   0.0000
    79 H3'         29.5329   -23.2586    18.0330 H            1 FAD500   0.0000
    80 H27         31.2135   -22.9445    19.3552 H            1 FAD500   0.0000
    81 H4'         31.8824   -23.3803    16.3471 H            1 FAD500   0.0000
    82 H29         30.2821   -25.4274    15.8935 H            1 FAD500   0.0000
    83 H5'1        30.8322   -25.3671    18.1410 H            1 FAD500   0.0000
    84 H5'2        32.2654   -24.6007    18.3001 H            1 FAD500   0.0000
@<TRIPOS>BOND
     1    1    2      ar
     2    1    3      ar
     3    1    4       1
     4    1   53       1
     5    4    5       1
     6    5    6       1
     7    6    7       1
     8    6    8       1
     9    7   12       1
    10    8    9       1
    11    8   10       1
    12   10   11       1
    13   10   12       1
    14   12   13       1
    15   13   14       1
    16   13   22       1
    17   14   15       2
    18   15   16       1
    19   16   17      ar
    20   16   22      ar
    21   17   18       1
    22   17   19      ar
    23   19   20      ar
    24   20   21      ar
    25   21   22      ar
    26   23   24       1
    27   23   40       2
    28   24   25       2
    29   24   26       1
    30   26   27       1
    31   27   28       2
    32   27   29       1
    33   29   30       2
    34   29   40       1
    35   30   31       1
    36   31   32      ar
    37   31   38      ar
    38   32   33      ar
    39   33   34       1
    40   33   35      ar
    41   35   36       1
    42   35   37      ar
    43   37   38      ar
    44   38   39       1
    45   39   40       1
    46   39   41       1
    47   41   42       1
    48   42   43       1
    49   42   44       1
    50   44   45       1
    51   44   46       1
    52   46   47       1
    53   46   48       1
    54   48   49       1
    55   49   50       1
    56   50   51      ar
    57   50   52      ar
    58   50   53       1
    59   48   84       1
    60    5   54       1
    61    5   55       1
    62    6   56       1
    63    8   57       1
    64    9   58       1
    65   10   59       1
    66   11   60       1
    67   12   61       1
    68   14   62       1
    69   18   63       1
    70   18   64       1
    71   20   65       1
    72   26   66       1
    73   32   67       1
    74   34   68       1
    75   34   69       1
    76   34   70       1
    77   36   71       1
    78   36   72       1
    79   36   73       1
    80   37   74       1
    81   41   75       1
    82   41   76       1
    83   42   77       1
    84   43   78       1
    85   44   79       1
    86   45   80       1
    87   46   81       1
    88   47   82       1
    89   48   83       1
@<TRIPOS>SUBSTRUCTURE
     1 FAD500      1 GROUP             4 A     FAD     0 **** FAD A 500
