@<TRIPOS>MOLECULE
4n3b_12V_1_ligand
   64    66     1     0     0
SMALL
NO_CHARGES


@<TRIPOS>ATOM
     1 N1           1.2120   -46.1220    12.0820 N.pl3        1 12V1501   0.0000
     2 C2           2.2230   -47.0860    11.7650 C.2          1 12V1501   0.0000
     3 O2           3.3560   -46.9500    12.1830 O.2          1 12V1501   0.0000
     4 N3           1.8850   -48.1760    10.9500 N.pl3        1 12V1501   0.0000
     5 C4           0.6430   -48.2520    10.5320 C.2          1 12V1501   0.0000
     6 O4           0.3260   -49.3100     9.7420 O.2          1 12V1501   0.0000
     7 C5          -0.4120   -47.3400    10.8200 C.2          1 12V1501   0.0000
     8 C6          -0.0720   -46.2730    11.6230 C.2          1 12V1501   0.0000
     9 PA          -2.7240   -42.1190    16.3090 P.3          1 12V1501   0.0000
    10 PB          -3.4620   -39.7520    14.8220 P.3          1 12V1501   0.0000
    11 C1'         -2.7030   -38.5270    17.0600 C.3          1 12V1501   0.0000
    12 O1'         -2.6050   -38.5020    15.7490 O.3          1 12V1501   0.0000
    13 O1A         -2.5740   -41.5720    17.6770 O.co2        1 12V1501   0.0000
    14 C1B          1.5390   -44.9770    12.9860 C.3          1 12V1501   0.0000
    15 O1B         -4.7470   -40.0630    15.5420 O.co2        1 12V1501   0.0000
    16 C2'         -3.4930   -37.3550    17.6930 C.3          1 12V1501   0.0000
    17 N2'         -4.8850   -37.4100    17.3110 N.am         1 12V1501   0.0000
    18 O2'          2.2380   -43.0390    11.7250 O.3          1 12V1501   0.0000
    19 O2A         -3.6960   -43.1610    15.8140 O.co2        1 12V1501  -1.0000
    20 C2B          1.1890   -43.5760    12.4670 C.3          1 12V1501   0.0000
    21 O2B         -3.3160   -39.2440    13.4410 O.co2        1 12V1501  -1.0000
    22 C3'         -2.8530   -36.0020    17.2870 C.3          1 12V1501   0.0000
    23 O3'         -3.6440   -34.9780    17.8300 O.3          1 12V1501   0.0000
    24 O3A         -2.5970   -41.0180    15.1660 O.3          1 12V1501   0.0000
    25 C3B          1.0140   -42.8060    13.8170 C.3          1 12V1501   0.0000
    26 O3B          2.3000   -42.4530    14.2200 O.3          1 12V1501   0.0000
    27 C4'         -1.4200   -35.7550    17.8520 C.3          1 12V1501   0.0000
    28 O4'         -1.0620   -34.4690    17.4090 O.3          1 12V1501   0.0000
    29 C4B          0.4870   -43.8890    14.7780 C.3          1 12V1501   0.0000
    30 O4B          0.8430   -45.1440    14.1810 O.3          1 12V1501   0.0000
    31 C5'         -0.4020   -36.7510    17.2910 C.3          1 12V1501   0.0000
    32 S5'         -0.9340   -38.4320    17.7380 S.3          1 12V1501   0.0000
    33 C5B         -1.0530   -43.8090    14.9910 C.3          1 12V1501   0.0000
    34 O5B         -1.2200   -42.9610    16.0580 O.3          1 12V1501   0.0000
    35 C6'          0.9660   -36.7900    17.9830 C.3          1 12V1501   0.0000
    36 O6'          0.8460   -36.8660    19.3730 O.3          1 12V1501   0.0000
    37 C7'         -5.7980   -38.0820    18.0870 C.2          1 12V1501   0.0000
    38 O7'         -5.4730   -38.6480    19.1400 O.2          1 12V1501   0.0000
    39 C8'         -7.2230   -38.1000    17.6140 C.3          1 12V1501   0.0000
    40 H1           2.5624   -48.8670    10.6976 H            1 12V1501   0.0000
    41 H2          -1.3378   -47.4655    10.4633 H            1 12V1501   0.0000
    42 H3          -0.7690   -45.6013    11.8740 H            1 12V1501   0.0000
    43 H1'         -3.1169   -39.3925    17.3421 H            1 12V1501   0.0000
    44 H1B          2.5185   -45.0032    13.1857 H            1 12V1501   0.0000
    45 H2'         -3.4378   -37.4414    18.6877 H            1 12V1501   0.0000
    46 H7          -5.1870   -36.9545    16.4736 H            1 12V1501   0.0000
    47 H8           1.8718   -42.4231    11.0274 H            1 12V1501   0.0000
    48 H2B          0.3387   -43.5851    11.9407 H            1 12V1501   0.0000
    49 H3'         -2.8391   -35.9228    16.2902 H            1 12V1501   0.0000
    50 H11         -4.5733   -35.0466    17.4671 H            1 12V1501   0.0000
    51 H3B          0.4000   -42.0204    13.7408 H            1 12V1501   0.0000
    52 H13          2.2529   -41.9536    15.0851 H            1 12V1501   0.0000
    53 H4'         -1.4282   -35.7900    18.8514 H            1 12V1501   0.0000
    54 H15         -1.3496   -33.7913    18.0857 H            1 12V1501   0.0000
    55 H4B          0.9480   -43.8003    15.6610 H            1 12V1501   0.0000
    56 H5'         -0.3052   -36.6522    16.3006 H            1 12V1501   0.0000
    57 H5B1        -1.4266   -44.7130    15.1986 H            1 12V1501   0.0000
    58 H5B2        -1.5020   -43.4418    14.1764 H            1 12V1501   0.0000
    59 H6'1         1.4711   -35.9598    17.7472 H            1 12V1501   0.0000
    60 H6'2         1.4698   -37.5903    17.6580 H            1 12V1501   0.0000
    61 H6'          1.7567   -36.8893    19.7854 H            1 12V1501   0.0000
    62 H8'1        -7.7827   -38.6171    18.2616 H            1 12V1501   0.0000
    63 H8'2        -7.5655   -37.1625    17.5519 H            1 12V1501   0.0000
    64 H8'3        -7.2699   -38.5323    16.7135 H            1 12V1501   0.0000
@<TRIPOS>BOND
     1    1    2       1
     2    1    8       1
     3    1   14       1
     4    2    3       2
     5    2    4       1
     6    4    5       1
     7    5    6       2
     8    5    7       1
     9    7    8       2
    10    9   13      ar
    11    9   19      ar
    12    9   24       1
    13    9   34       1
    14   10   12       1
    15   10   15      ar
    16   10   21      ar
    17   10   24       1
    18   11   12       1
    19   11   16       1
    20   11   32       1
    21   14   20       1
    22   14   30       1
    23   16   17       1
    24   16   22       1
    25   17   37      am
    26   18   20       1
    27   20   25       1
    28   22   23       1
    29   22   27       1
    30   25   26       1
    31   25   29       1
    32   27   28       1
    33   27   31       1
    34   29   30       1
    35   29   33       1
    36   31   32       1
    37   31   35       1
    38   33   34       1
    39   35   36       1
    40   37   38       2
    41   37   39       1
    42    4   40       1
    43    7   41       1
    44    8   42       1
    45   11   43       1
    46   39   64       1
    47   14   44       1
    48   39   63       1
    49   16   45       1
    50   17   46       1
    51   18   47       1
    52   20   48       1
    53   22   49       1
    54   23   50       1
    55   25   51       1
    56   26   52       1
    57   27   53       1
    58   28   54       1
    59   29   55       1
    60   31   56       1
    61   33   57       1
    62   33   58       1
    63   35   59       1
    64   35   60       1
    65   36   61       1
    66   39   62       1
@<TRIPOS>SUBSTRUCTURE
     1 12V1501     1 GROUP             4 A     12V     0 **** 12V A1501
