@<TRIPOS>MOLECULE
2rkg_AB1_1_ligand
   94    97     1     0     0
SMALL
NO_CHARGES


@<TRIPOS>ATOM
     1 C1         -12.5830    12.3050     6.9680 C.3          1 AB1501   0.0000
     2 C2         -10.4740    13.0480     5.7760 C.3          1 AB1501   0.0000
     3 N1         -11.2370    14.2330     5.3870 N.am         1 AB1501   0.0000
     4 C3         -12.5030    14.4660     5.7490 C.2          1 AB1501   0.0000
     5 N2         -13.1700    13.4740     6.3330 N.am         1 AB1501   0.0000
     6 C4          -6.4060    17.5750    -0.2120 C.ar         1 AB1501   0.0000
     7 C5          -5.7590    18.6000    -0.9040 C.ar         1 AB1501   0.0000
     8 C6          -4.4720    18.4050    -1.4090 C.ar         1 AB1501   0.0000
     9 C7          -3.8230    17.1840    -1.2160 C.ar         1 AB1501   0.0000
    10 C8          -4.4690    16.1610    -0.5140 C.ar         1 AB1501   0.0000
    11 C9          -5.7590    16.3530    -0.0170 C.ar         1 AB1501   0.0000
    12 O1         -13.0410    15.5350     5.5690 O.2          1 AB1501   0.0000
    13 C10        -10.4930    15.1880     4.5370 C.3          1 AB1501   0.0000
    14 C11        -10.3650    14.6780     3.1150 C.2          1 AB1501   0.0000
    15 N3         -11.2610    15.2040     2.2700 N.am         1 AB1501   0.0000
    16 C12        -11.3180    14.8460     0.8530 C.3          1 AB1501   0.0000
    17 C13         -9.1480    15.5640     5.1980 C.3          1 AB1501   0.0000
    18 C14         -8.3050    16.4700     4.3100 C.3          1 AB1501   0.0000
    19 C15         -9.3270    16.2580     6.5470 C.3          1 AB1501   0.0000
    20 O2          -9.5120    13.8520     2.7810 O.2          1 AB1501   0.0000
    21 C16        -12.4550    10.6580     1.9210 C.ar         1 AB1501   0.0000
    22 C17        -13.4870    10.6420     2.8580 C.ar         1 AB1501   0.0000
    23 C18        -14.2560    11.7860     3.0630 C.ar         1 AB1501   0.0000
    24 C19        -13.9910    12.9400     2.3270 C.ar         1 AB1501   0.0000
    25 C20        -12.9520    12.9620     1.3980 C.ar         1 AB1501   0.0000
    26 C21        -12.1910    11.8140     1.1890 C.ar         1 AB1501   0.0000
    27 C22        -12.6950    14.2280     0.6130 C.3          1 AB1501   0.0000
    28 C23        -11.3160    16.1540     0.0660 C.3          1 AB1501   0.0000
    29 C24        -10.2000    17.1290     0.4250 C.3          1 AB1501   0.0000
    30 C25         -8.7910    16.6940     0.0160 C.3          1 AB1501   0.0000
    31 N4          -8.7390    16.5540    -1.4340 N.am         1 AB1501   0.0000
    32 C26         -8.5640    15.3460    -1.9710 C.2          1 AB1501   0.0000
    33 C27         -8.4930    15.2230    -3.4750 C.3          1 AB1501   0.0000
    34 O3          -8.6070    16.4800    -4.1480 O.3          1 AB1501   0.0000
    35 C28         -8.0950    16.6300    -5.4150 C.ar         1 AB1501   0.0000
    36 O4         -10.4980    18.3790    -0.1920 O.3          1 AB1501   0.0000
    37 C29         -7.8040    17.8190     0.3280 C.3          1 AB1501   0.0000
    38 O5          -8.4640    14.3320    -1.2980 O.2          1 AB1501   0.0000
    39 C30         -8.7070    16.0230    -6.5230 C.ar         1 AB1501   0.0000
    40 C31         -8.1660    16.1920    -7.7940 C.ar         1 AB1501   0.0000
    41 C32         -7.0230    16.9640    -7.9790 C.ar         1 AB1501   0.0000
    42 C33         -6.4120    17.5670    -6.8840 C.ar         1 AB1501   0.0000
    43 C34         -6.9410    17.4030    -5.6060 C.ar         1 AB1501   0.0000
    44 C35         -6.2400    18.0820    -4.4580 C.3          1 AB1501   0.0000
    45 C36         -9.9530    15.1820    -6.4010 C.3          1 AB1501   0.0000
    46 C37        -11.4580    11.9060     6.0230 C.3          1 AB1501   0.0000
    47 H1         -13.2555    11.5697     7.0520 H            1 AB1501   0.0000
    48 H2         -12.2241    12.5335     7.8730 H            1 AB1501   0.0000
    49 H3          -9.9581    13.2369     6.6116 H            1 AB1501   0.0000
    50 H4          -9.8414    12.7972     5.0432 H            1 AB1501   0.0000
    51 H5         -14.1679    13.5383     6.3355 H            1 AB1501   0.0000
    52 H6          -6.2191    19.4776    -1.0386 H            1 AB1501   0.0000
    53 H7          -4.0148    19.1403    -1.9092 H            1 AB1501   0.0000
    54 H8          -2.9016    17.0416    -1.5776 H            1 AB1501   0.0000
    55 H9          -4.0042    15.2878    -0.3675 H            1 AB1501   0.0000
    56 H10         -6.2194    15.6163     0.4782 H            1 AB1501   0.0000
    57 H11        -11.0390    16.0248     4.4960 H            1 AB1501   0.0000
    58 H12        -11.9188    15.8695     2.6227 H            1 AB1501   0.0000
    59 H13        -10.5730    14.2362     0.5826 H            1 AB1501   0.0000
    60 H14         -8.6344    14.7199     5.3521 H            1 AB1501   0.0000
    61 H15         -7.4468    16.6876     4.7750 H            1 AB1501   0.0000
    62 H16         -8.1079    16.0024     3.4483 H            1 AB1501   0.0000
    63 H17         -8.8068    17.3147     4.1238 H            1 AB1501   0.0000
    64 H18         -8.4300    16.4788     6.9299 H            1 AB1501   0.0000
    65 H19         -9.8523    17.0997     6.4218 H            1 AB1501   0.0000
    66 H20         -9.8159    15.6499     7.1724 H            1 AB1501   0.0000
    67 H21        -11.9026     9.8376     1.7737 H            1 AB1501   0.0000
    68 H22        -13.6751     9.8113     3.3820 H            1 AB1501   0.0000
    69 H23        -14.9956    11.7792     3.7360 H            1 AB1501   0.0000
    70 H24        -14.5500    13.7574     2.4665 H            1 AB1501   0.0000
    71 H25        -11.4543    11.8195     0.5128 H            1 AB1501   0.0000
    72 H26        -12.7778    14.0154    -0.3606 H            1 AB1501   0.0000
    73 H27        -13.3894    14.9011     0.8675 H            1 AB1501   0.0000
    74 H28        -12.1901    16.6124     0.2265 H            1 AB1501   0.0000
    75 H29        -11.2302    15.9302    -0.9049 H            1 AB1501   0.0000
    76 H30        -10.2093    17.2612     1.4162 H            1 AB1501   0.0000
    77 H31         -8.5275    15.8439     0.4719 H            1 AB1501   0.0000
    78 H32         -8.8338    17.3576    -2.0215 H            1 AB1501   0.0000
    79 H33         -9.2375    14.6297    -3.7811 H            1 AB1501   0.0000
    80 H34         -7.6157    14.8099    -3.7192 H            1 AB1501   0.0000
    81 H35        -10.5881    19.0846     0.5109 H            1 AB1501   0.0000
    82 H36         -8.1537    18.6655    -0.0733 H            1 AB1501   0.0000
    83 H37         -7.7451    17.9204     1.3211 H            1 AB1501   0.0000
    84 H38         -8.6021    15.7552    -8.5807 H            1 AB1501   0.0000
    85 H39         -6.6421    17.0849    -8.8957 H            1 AB1501   0.0000
    86 H40         -5.5895    18.1205    -7.0151 H            1 AB1501   0.0000
    87 H41         -5.4438    18.5802    -4.8013 H            1 AB1501   0.0000
    88 H42         -6.8682    18.7219    -4.0153 H            1 AB1501   0.0000
    89 H43         -5.9427    17.3945    -3.7954 H            1 AB1501   0.0000
    90 H44        -10.2194    14.8478    -7.3051 H            1 AB1501   0.0000
    91 H45         -9.7729    14.4048    -5.7980 H            1 AB1501   0.0000
    92 H46        -10.6929    15.7358    -6.0190 H            1 AB1501   0.0000
    93 H47        -11.8560    11.6298     5.1481 H            1 AB1501   0.0000
    94 H48        -10.9617    11.1348     6.4217 H            1 AB1501   0.0000
@<TRIPOS>BOND
     1    1    5       1
     2    1   46       1
     3    2    3       1
     4    2   46       1
     5    3    4      am
     6    3   13       1
     7    4    5      am
     8    4   12       2
     9    6    7      ar
    10    6   11      ar
    11    6   37       1
    12    7    8      ar
    13    8    9      ar
    14    9   10      ar
    15   10   11      ar
    16   13   14       1
    17   13   17       1
    18   14   15      am
    19   14   20       2
    20   15   16       1
    21   16   27       1
    22   16   28       1
    23   17   18       1
    24   17   19       1
    25   21   22      ar
    26   21   26      ar
    27   22   23      ar
    28   23   24      ar
    29   24   25      ar
    30   25   26      ar
    31   25   27       1
    32   28   29       1
    33   29   30       1
    34   29   36       1
    35   30   31       1
    36   30   37       1
    37   31   32      am
    38   32   33       1
    39   32   38       2
    40   33   34       1
    41   34   35       1
    42   35   39      ar
    43   35   43      ar
    44   39   40      ar
    45   39   45       1
    46   40   41      ar
    47   41   42      ar
    48   42   43      ar
    49   43   44       1
    50    1   47       1
    51    1   48       1
    52    2   49       1
    53    2   50       1
    54    5   51       1
    55    7   52       1
    56    8   53       1
    57    9   54       1
    58   10   55       1
    59   11   56       1
    60   13   57       1
    61   15   58       1
    62   16   59       1
    63   17   60       1
    64   18   61       1
    65   18   62       1
    66   18   63       1
    67   19   64       1
    68   19   65       1
    69   19   66       1
    70   21   67       1
    71   22   68       1
    72   23   69       1
    73   24   70       1
    74   26   71       1
    75   27   72       1
    76   27   73       1
    77   28   74       1
    78   28   75       1
    79   29   76       1
    80   30   77       1
    81   31   78       1
    82   33   79       1
    83   33   80       1
    84   36   81       1
    85   37   82       1
    86   37   83       1
    87   40   84       1
    88   41   85       1
    89   42   86       1
    90   44   87       1
    91   44   88       1
    92   44   89       1
    93   45   90       1
    94   45   91       1
    95   45   92       1
    96   46   93       1
    97   46   94       1
@<TRIPOS>SUBSTRUCTURE
     1 AB1501      1 GROUP             4 B     AB1     0 **** AB1 B 501
