@<TRIPOS>MOLECULE
3qus_AGS_1_ligand
   43    45     1     0     0
SMALL
NO_CHARGES


@<TRIPOS>ATOM
     1 PG         -24.1660    -3.5800    67.6140 P.3          1 AGS700   0.0000
     2 S1G        -24.8560    -2.6920    69.2090 S.2          1 AGS700   0.0000
     3 O2G        -25.3490    -3.6730    66.5240 O.co2        1 AGS700  -1.0000
     4 O3G        -22.9340    -2.7520    66.9930 O.co2        1 AGS700  -1.0000
     5 PB         -22.1080    -5.4730    67.6990 P.3          1 AGS700   0.0000
     6 O1B        -21.9290    -6.9720    67.6280 O.co2        1 AGS700   0.0000
     7 O2B        -21.2250    -4.6240    68.5730 O.co2        1 AGS700  -1.0000
     8 O3B        -23.6450    -5.0660    67.9880 O.3          1 AGS700   0.0000
     9 PA         -20.3530    -4.8300    65.8380 P.3          1 AGS700   0.0000
    10 O1A        -20.2680    -5.2010    64.3710 O.co2        1 AGS700   0.0000
    11 O2A        -19.6630    -5.6620    66.8910 O.co2        1 AGS700  -1.0000
    12 O3A        -21.8990    -4.8460    66.2460 O.3          1 AGS700   0.0000
    13 O5'        -19.8730    -3.3080    66.0660 O.3          1 AGS700   0.0000
    14 C5'        -18.5520    -3.1380    66.5870 C.3          1 AGS700   0.0000
    15 C4'        -18.2970    -1.7340    67.1180 C.3          1 AGS700   0.0000
    16 O4'        -17.5530    -1.7060    68.3440 O.3          1 AGS700   0.0000
    17 C3'        -17.4290    -0.9600    66.1540 C.3          1 AGS700   0.0000
    18 O3'        -18.2630    -0.3690    65.1640 O.3          1 AGS700   0.0000
    19 C2'        -16.7470     0.0800    67.0230 C.3          1 AGS700   0.0000
    20 O2'        -17.3460     1.3570    66.7870 O.3          1 AGS700   0.0000
    21 C1'        -17.0310    -0.3720    68.4590 C.3          1 AGS700   0.0000
    22 N9         -15.9010    -0.2260    69.4480 N.pl3        1 AGS700   0.0000
    23 C8         -15.6610    -1.0640    70.4790 C.2          1 AGS700   0.0000
    24 N7         -14.6030    -0.6630    71.2320 N.2          1 AGS700   0.0000
    25 C5         -14.1290     0.4720    70.6830 C.ar         1 AGS700   0.0000
    26 C6         -13.0180     1.4330    70.9710 C.ar         1 AGS700   0.0000
    27 N6         -12.1830     1.2310    72.0190 N.pl3        1 AGS700   0.0000
    28 N1         -12.8550     2.5120    70.1570 N.ar         1 AGS700   0.0000
    29 C2         -13.6850     2.7260    69.1120 C.ar         1 AGS700   0.0000
    30 N3         -14.7120     1.8960    68.7890 N.ar         1 AGS700   0.0000
    31 C4         -14.9890     0.7680    69.5150 C.ar         1 AGS700   0.0000
    32 H5'1       -17.8950    -3.3267    65.8571 H            1 AGS700   0.0000
    33 H5'2       -18.4176    -3.7900    67.3332 H            1 AGS700   0.0000
    34 H4'        -19.1678    -1.2584    67.2424 H            1 AGS700   0.0000
    35 H3'        -16.7523    -1.5617    65.7297 H            1 AGS700   0.0000
    36 H5         -18.0003    -0.7086    64.2609 H            1 AGS700   0.0000
    37 H2'        -15.7635     0.1071    66.8440 H            1 AGS700   0.0000
    38 H7         -18.0722     1.2638    66.1058 H            1 AGS700   0.0000
    39 H1'        -17.7798     0.1993    68.7951 H            1 AGS700   0.0000
    40 H9         -16.1997    -1.8853    70.6670 H            1 AGS700   0.0000
    41 H10        -11.4442     1.8796    72.2019 H            1 AGS700   0.0000
    42 H11        -12.3056     0.4333    72.6095 H            1 AGS700   0.0000
    43 H12        -13.5358     3.5374    68.5468 H            1 AGS700   0.0000
@<TRIPOS>BOND
     1    1    2       2
     2    1    3      ar
     3    1    4      ar
     4    1    8       1
     5    5    6      ar
     6    5    7      ar
     7    5    8       1
     8    5   12       1
     9    9   10      ar
    10    9   11      ar
    11    9   12       1
    12    9   13       1
    13   13   14       1
    14   14   15       1
    15   15   16       1
    16   15   17       1
    17   16   21       1
    18   17   18       1
    19   17   19       1
    20   19   20       1
    21   19   21       1
    22   21   22       1
    23   22   23       1
    24   22   31       1
    25   23   24       2
    26   24   25       1
    27   25   26      ar
    28   25   31      ar
    29   26   27       1
    30   26   28      ar
    31   28   29      ar
    32   29   30      ar
    33   30   31      ar
    34   29   43       1
    35   27   42       1
    36   27   41       1
    37   23   40       1
    38   14   32       1
    39   14   33       1
    40   15   34       1
    41   17   35       1
    42   18   36       1
    43   19   37       1
    44   20   38       1
    45   21   39       1
@<TRIPOS>SUBSTRUCTURE
     1 AGS700      1 GROUP             4 A     AGS     0 **** AGS A 700
