@<TRIPOS>MOLECULE
./coach420/3ku1/ligand.pdb
 27 29 0 0 0
SMALL
GASTEIGER

@<TRIPOS>ATOM
      1  N         39.1380   33.5820   -3.6060 N.3   226  SAM226     -0.1208
      2  CA        40.5420   33.2220   -3.1620 C.3   226  SAM226      0.1952
      3  C         40.4920   32.4340   -1.8760 C.2   226  SAM226      0.3819
      4  O         41.2720   31.5210   -1.6600 O.co2 226  SAM226     -0.2441
      5  OXT       39.6660   32.7040   -1.0140 O.co2 226  SAM226     -0.2441
      6  CB        41.5050   34.3820   -2.9150 C.3   226  SAM226      0.0414
      7  CG        41.4440   34.9450   -1.5030 C.3   226  SAM226      0.0503
      8  SD        42.5760   36.3100   -1.1110 S.3   226  SAM226     -0.1761
      9  CE        42.3060   36.4300    0.6830 C.3   226  SAM226      0.0590
     10  C5'       41.8790   37.8260   -1.7980 C.3   226  SAM226      0.0805
     11  C4'       42.1250   37.9390   -3.2960 C.3   226  SAM226      0.1602
     12  O4'       41.0260   38.5920   -3.9020 O.3   226  SAM226     -0.3324
     13  C3'       43.3360   38.7850   -3.6980 C.3   226  SAM226      0.2144
     14  O3'       44.1620   38.0220   -4.5510 O.3   226  SAM226     -0.2176
     15  C2'       42.7850   39.9460   -4.5010 C.3   226  SAM226      0.2336
     16  O2'       43.7140   40.3120   -5.4880 O.3   226  SAM226     -0.2155
     17  C1'       41.5530   39.2300   -5.0310 C.3   226  SAM226      0.2409
     18  N9        40.5750   39.9740   -5.8470 N.ar  226  SAM226     -0.2693
     19  C8        40.2640   39.6220   -7.1620 C.ar  226  SAM226      0.1816
     20  N7        39.3430   40.4490   -7.7330 N.ar  226  SAM226     -0.2193
     21  C5        39.0870   41.3160   -6.7640 C.ar  226  SAM226      0.1518
     22  C6        38.2420   42.3180   -6.8920 C.ar  226  SAM226      0.1919
     23  N6        37.6910   42.3770   -8.0610 N.pl3 226  SAM226     -0.1054
     24  N1        38.0630   43.1450   -5.8320 N.ar  226  SAM226     -0.2040
     25  C2        38.8030   42.8870   -4.6480 C.ar  226  SAM226      0.2016
     26  N3        39.6980   41.8370   -4.5020 N.ar  226  SAM226     -0.2048
     27  C4        39.8220   41.0720   -5.5790 C.ar  226  SAM226      0.1692
@<TRIPOS>BOND
     1     1     2    1
     2     2     6    1
     3     2     3    1
     4     3     4   ar
     5     3     5   ar
     6     6     7    1
     7     7     8    1
     8     8    10    1
     9     8     9    1
    10    10    11    1
    11    11    12    1
    12    11    13    1
    13    12    17    1
    14    13    14    1
    15    13    15    1
    16    15    16    1
    17    15    17    1
    18    17    18    1
    19    18    19   ar
    20    18    27   ar
    21    19    20   ar
    22    20    21   ar
    23    21    22   ar
    24    21    27   ar
    25    22    23    1
    26    22    24   ar
    27    24    25   ar
    28    25    26   ar
    29    26    27   ar
