@<TRIPOS>MOLECULE
1tqm_ANP_1_ligand
   44    46     1     0     0
SMALL
NO_CHARGES


@<TRIPOS>ATOM
     1 PG          42.1730    21.7460    25.1150 P.3          1 ANP283   0.0000
     2 O1G         43.1560    22.3660    26.2010 O.co2        1 ANP283   0.0000
     3 O2G         40.8990    20.9730    25.6730 O.co2        1 ANP283  -1.0000
     4 O3G         41.5820    22.9890    24.3350 O.co2        1 ANP283  -1.0000
     5 PB          44.4740    20.6460    23.5920 P.3          1 ANP283   0.0000
     6 O1B         45.3380    21.3830    24.6570 O.co2        1 ANP283   0.0000
     7 O2B         45.3350    19.3160    23.4570 O.co2        1 ANP283  -1.0000
     8 N3B         42.8290    20.5070    24.0280 N.3          1 ANP283   0.0000
     9 PA          44.3510    22.8590    21.8110 P.3          1 ANP283   0.0000
    10 O1A         43.9560    22.9880    20.2050 O.co2        1 ANP283   0.0000
    11 O2A         43.1810    23.5030    22.6040 O.co2        1 ANP283  -1.0000
    12 O3A         44.7370    21.3950    22.1850 O.3          1 ANP283   0.0000
    13 O5'         45.7180    23.6090    21.9370 O.3          1 ANP283   0.0000
    14 C5'         46.2990    23.9020    23.2770 C.3          1 ANP283   0.0000
    15 C4'         46.5600    25.4020    23.4070 C.3          1 ANP283   0.0000
    16 O4'         47.5970    25.9820    22.5530 O.3          1 ANP283   0.0000
    17 C3'         45.3140    26.2750    23.2990 C.3          1 ANP283   0.0000
    18 O3'         44.3000    26.3180    24.3430 O.3          1 ANP283   0.0000
    19 C2'         45.8340    27.5500    22.7770 C.3          1 ANP283   0.0000
    20 O2'         46.0930    28.2880    24.0090 O.3          1 ANP283   0.0000
    21 C1'         47.1890    27.2420    22.1400 C.3          1 ANP283   0.0000
    22 N9          46.9450    27.0570    20.6560 N.pl3        1 ANP283   0.0000
    23 C8          46.6530    25.9260    19.9780 C.2          1 ANP283   0.0000
    24 N7          46.4090    26.1230    18.6390 N.2          1 ANP283   0.0000
    25 C5          46.6340    27.4280    18.4690 C.ar         1 ANP283   0.0000
    26 C6          46.5870    28.4280    17.4310 C.ar         1 ANP283   0.0000
    27 N6          46.3010    27.9800    16.1950 N.pl3        1 ANP283   0.0000
    28 N1          46.8600    29.7370    17.6930 N.ar         1 ANP283   0.0000
    29 C2          47.1680    30.2090    18.9410 C.ar         1 ANP283   0.0000
    30 N3          47.2290    29.3970    19.9910 N.ar         1 ANP283   0.0000
    31 C4          46.8810    28.0040    19.7900 C.ar         1 ANP283   0.0000
    32 H3B         42.2911    20.5303    23.1853 H            1 ANP283   0.0000
    33 H5'1        47.1599    23.4042    23.3823 H            1 ANP283   0.0000
    34 H5'2        45.6578    23.6131    23.9879 H            1 ANP283   0.0000
    35 H4'         46.8893    25.5303    24.3425 H            1 ANP283   0.0000
    36 H3'         44.8258    25.8865    22.5175 H            1 ANP283   0.0000
    37 H6          43.4213    26.0246    23.9665 H            1 ANP283   0.0000
    38 H2'         45.2002    28.0157    22.1594 H            1 ANP283   0.0000
    39 H8          45.4495    27.9935    24.7155 H            1 ANP283   0.0000
    40 H1'         47.8715    27.9475    22.3311 H            1 ANP283   0.0000
    41 H10         46.6174    25.0254    20.4112 H            1 ANP283   0.0000
    42 H11         46.2528    28.6215    15.4294 H            1 ANP283   0.0000
    43 H12         46.1366    27.0056    16.0420 H            1 ANP283   0.0000
    44 H13         47.3507    31.1844    19.0646 H            1 ANP283   0.0000
@<TRIPOS>BOND
     1    1    2      ar
     2    1    3      ar
     3    1    4      ar
     4    1    8       1
     5    5    6      ar
     6    5    7      ar
     7    5    8       1
     8    5   12       1
     9    9   10      ar
    10    9   11      ar
    11    9   12       1
    12    9   13       1
    13   13   14       1
    14   14   15       1
    15   15   16       1
    16   15   17       1
    17   16   21       1
    18   17   18       1
    19   17   19       1
    20   19   20       1
    21   19   21       1
    22   21   22       1
    23   22   23       1
    24   22   31       1
    25   23   24       2
    26   24   25       1
    27   25   26      ar
    28   25   31      ar
    29   26   27       1
    30   26   28      ar
    31   28   29      ar
    32   29   30      ar
    33   30   31      ar
    34   29   44       1
    35   27   43       1
    36   27   42       1
    37    8   32       1
    38   23   41       1
    39   14   33       1
    40   14   34       1
    41   15   35       1
    42   17   36       1
    43   18   37       1
    44   19   38       1
    45   20   39       1
    46   21   40       1
@<TRIPOS>SUBSTRUCTURE
     1 ANP283      1 GROUP             4 A     ANP     0 **** ANP A 283
