@<TRIPOS>MOLECULE
4x28_FDA_2_ligand
   84    89     1     0     0
SMALL
NO_CHARGES


@<TRIPOS>ATOM
     1 PA          33.6770    92.8950    24.8170 P.3          1 FDA501   0.0000
     2 O1A         33.3610    93.0560    23.3340 O.co2        1 FDA501   0.0000
     3 O2A         33.2630    93.9040    25.9150 O.co2        1 FDA501  -1.0000
     4 O5B         35.2330    92.6560    25.1360 O.3          1 FDA501   0.0000
     5 C5B         35.9740    91.8530    24.1790 C.3          1 FDA501   0.0000
     6 C4B         37.4540    92.0170    24.5200 C.3          1 FDA501   0.0000
     7 O4B         37.9580    93.3380    24.1960 O.3          1 FDA501   0.0000
     8 C3B         37.8270    91.7970    25.9800 C.3          1 FDA501   0.0000
     9 O3B         37.7590    90.4300    26.3070 O.3          1 FDA501   0.0000
    10 C2B         39.1690    92.4600    26.0150 C.3          1 FDA501   0.0000
    11 O2B         40.1010    91.5880    25.4050 O.3          1 FDA501   0.0000
    12 C1B         38.9960    93.6560    25.1060 C.3          1 FDA501   0.0000
    13 N9A         38.5830    94.8310    25.9220 N.pl3        1 FDA501   0.0000
    14 C8A         37.3280    95.2970    26.1400 C.2          1 FDA501   0.0000
    15 N7A         37.3590    96.4050    26.9380 N.2          1 FDA501   0.0000
    16 C5A         38.6730    96.6150    27.2230 C.ar         1 FDA501   0.0000
    17 C6A         39.4910    97.5740    27.9670 C.ar         1 FDA501   0.0000
    18 N6A         38.8960    98.5460    28.6280 N.pl3        1 FDA501   0.0000
    19 N1A         40.8090    97.4600    28.0130 N.ar         1 FDA501   0.0000
    20 C2A         41.4620    96.5120    27.3260 C.ar         1 FDA501   0.0000
    21 N3A         40.7910    95.6070    26.6430 N.ar         1 FDA501   0.0000
    22 C4A         39.4540    95.5940    26.5420 C.ar         1 FDA501   0.0000
    23 N1          25.8290    88.7850    31.0240 N.2          1 FDA501   0.0000
    24 C2          24.6640    88.9580    31.6820 C.2          1 FDA501   0.0000
    25 O2          24.1210    90.1150    31.6970 O.2          1 FDA501   0.0000
    26 N3          24.0410    87.9000    32.2590 N.pl3        1 FDA501   0.0000
    27 C4          24.4800    86.6370    32.2390 C.2          1 FDA501   0.0000
    28 O4          23.8570    85.6710    32.7500 O.2          1 FDA501   0.0000
    29 C4X         25.7520    86.3560    31.5670 C.2          1 FDA501   0.0000
    30 N5          26.2800    85.1020    31.4570 N.2          1 FDA501   0.0000
    31 C5X         27.0520    84.8130    30.4080 C.ar         1 FDA501   0.0000
    32 C6          27.1980    83.5210    29.8800 C.ar         1 FDA501   0.0000
    33 C7          28.0180    83.2710    28.7630 C.ar         1 FDA501   0.0000
    34 C7M         28.1600    81.8400    28.2330 C.3          1 FDA501   0.0000
    35 C8          28.7120    84.4100    28.1010 C.ar         1 FDA501   0.0000
    36 C8M         29.5670    84.2350    26.8830 C.3          1 FDA501   0.0000
    37 C9          28.5260    85.6940    28.5960 C.ar         1 FDA501   0.0000
    38 C9A         27.7630    85.9290    29.7510 C.ar         1 FDA501   0.0000
    39 N10         27.5950    87.2090    30.2830 N.pl3        1 FDA501   0.0000
    40 C10         26.3860    87.5240    30.9500 C.2          1 FDA501   0.0000
    41 C1'         28.3330    88.3150    29.6920 C.3          1 FDA501   0.0000
    42 C2'         29.8600    88.1700    29.7980 C.3          1 FDA501   0.0000
    43 O2'         30.1520    88.2860    31.1760 O.3          1 FDA501   0.0000
    44 C3'         30.3450    89.2440    28.7970 C.3          1 FDA501   0.0000
    45 O3'         30.7230    88.6410    27.5820 O.3          1 FDA501   0.0000
    46 C4'         31.4130    90.0160    29.3990 C.3          1 FDA501   0.0000
    47 O4'         30.8030    90.5430    30.6480 O.3          1 FDA501   0.0000
    48 C5'         32.0490    90.8510    28.2500 C.3          1 FDA501   0.0000
    49 O5'         31.2850    91.3700    27.1240 O.3          1 FDA501   0.0000
    50 P           31.5770    91.1470    25.5160 P.3          1 FDA501   0.0000
    51 O1P         31.3650    89.6520    25.3170 O.co2        1 FDA501   0.0000
    52 O2P         30.7760    92.1410    24.7410 O.co2        1 FDA501  -1.0000
    53 O3P         33.1120    91.4140    25.2020 O.3          1 FDA501   0.0000
    54 H5B1        35.7970    92.1749    23.2489 H            1 FDA501   0.0000
    55 H5B2        35.7072    90.8923    24.2556 H            1 FDA501   0.0000
    56 H4B         37.9662    91.3547    23.9732 H            1 FDA501   0.0000
    57 H3B         37.1931    92.3064    26.5619 H            1 FDA501   0.0000
    58 H5          37.9665    89.8826    25.4963 H            1 FDA501   0.0000
    59 H2B         39.4410    92.7213    26.9411 H            1 FDA501   0.0000
    60 H7          41.0033    91.7260    25.8133 H            1 FDA501   0.0000
    61 H1B         39.8456    93.8502    24.6156 H            1 FDA501   0.0000
    62 H8A         36.4955    94.8863    25.7681 H            1 FDA501   0.0000
    63 H6A1        39.4415    99.2088    29.1409 H            1 FDA501   0.0000
    64 H6A2        37.8989    98.6210    28.6168 H            1 FDA501   0.0000
    65 H2A         42.4618    96.4917    27.3320 H            1 FDA501   0.0000
    66 H13         23.1823    88.0795    32.7391 H            1 FDA501   0.0000
    67 H14         26.7085    82.7606    30.3068 H            1 FDA501   0.0000
    68 H7M1        28.7728    81.8365    27.4427 H            1 FDA501   0.0000
    69 H7M2        28.5379    81.2548    28.9504 H            1 FDA501   0.0000
    70 H7M3        27.2620    81.4950    27.9600 H            1 FDA501   0.0000
    71 H8M1        29.9351    85.1219    26.6039 H            1 FDA501   0.0000
    72 H8M2        30.3208    83.6119    27.0916 H            1 FDA501   0.0000
    73 H8M3        29.0157    83.8544    26.1406 H            1 FDA501   0.0000
    74 H21         28.9443    86.4675    28.1199 H            1 FDA501   0.0000
    75 H1'1        28.0634    89.1581    30.1573 H            1 FDA501   0.0000
    76 H1'2        28.0886    88.3756    28.7242 H            1 FDA501   0.0000
    77 H2'         30.1327    87.2641    29.4740 H            1 FDA501   0.0000
    78 H25         30.9677    87.7487    31.3903 H            1 FDA501   0.0000
    79 H3'         29.5815    89.8627    28.6118 H            1 FDA501   0.0000
    80 H27         31.0345    89.3447    26.9434 H            1 FDA501   0.0000
    81 H4'         32.1087    89.3566    29.6839 H            1 FDA501   0.0000
    82 H29         30.5142    89.7796    31.2258 H            1 FDA501   0.0000
    83 H5'1        32.7636    90.2741    27.8544 H            1 FDA501   0.0000
    84 H5'2        32.4674    91.6467    28.6880 H            1 FDA501   0.0000
@<TRIPOS>BOND
     1    1    2      ar
     2    1    3      ar
     3    1    4       1
     4    1   53       1
     5    4    5       1
     6    5    6       1
     7    6    7       1
     8    6    8       1
     9    7   12       1
    10    8    9       1
    11    8   10       1
    12   10   11       1
    13   10   12       1
    14   12   13       1
    15   13   14       1
    16   13   22       1
    17   14   15       2
    18   15   16       1
    19   16   17      ar
    20   16   22      ar
    21   17   18       1
    22   17   19      ar
    23   19   20      ar
    24   20   21      ar
    25   21   22      ar
    26   23   24       1
    27   23   40       2
    28   24   25       2
    29   24   26       1
    30   26   27       1
    31   27   28       2
    32   27   29       1
    33   29   30       2
    34   29   40       1
    35   30   31       1
    36   31   32      ar
    37   31   38      ar
    38   32   33      ar
    39   33   34       1
    40   33   35      ar
    41   35   36       1
    42   35   37      ar
    43   37   38      ar
    44   38   39       1
    45   39   40       1
    46   39   41       1
    47   41   42       1
    48   42   43       1
    49   42   44       1
    50   44   45       1
    51   44   46       1
    52   46   47       1
    53   46   48       1
    54   48   49       1
    55   49   50       1
    56   50   51      ar
    57   50   52      ar
    58   50   53       1
    59   48   84       1
    60    5   54       1
    61    5   55       1
    62    6   56       1
    63    8   57       1
    64    9   58       1
    65   10   59       1
    66   11   60       1
    67   12   61       1
    68   14   62       1
    69   18   63       1
    70   18   64       1
    71   20   65       1
    72   26   66       1
    73   32   67       1
    74   34   68       1
    75   34   69       1
    76   34   70       1
    77   36   71       1
    78   36   72       1
    79   36   73       1
    80   37   74       1
    81   41   75       1
    82   41   76       1
    83   42   77       1
    84   43   78       1
    85   44   79       1
    86   45   80       1
    87   46   81       1
    88   47   82       1
    89   48   83       1
@<TRIPOS>SUBSTRUCTURE
     1 FDA501      1 GROUP             4 B     FDA     0 **** FDA B 501
