@<TRIPOS>MOLECULE
3t94_MTA_4_ligand
   36    38     1     0     0
SMALL
NO_CHARGES


@<TRIPOS>ATOM
     1 CS          42.6980    -2.3370   -40.8440 C.3          1 MTA901   0.0000
     2 S5'         42.5070    -1.1430   -42.1220 S.3          1 MTA901   0.0000
     3 C5'         43.8520    -1.3510   -43.2670 C.3          1 MTA901   0.0000
     4 C4'         43.8510    -2.6380   -44.1100 C.3          1 MTA901   0.0000
     5 O4'         42.6520    -2.7760   -44.8650 O.3          1 MTA901   0.0000
     6 C2'         44.2880    -3.1050   -46.4710 C.3          1 MTA901   0.0000
     7 O2'         44.9420    -4.2000   -47.1340 O.3          1 MTA901   0.0000
     8 C3'         44.9600    -2.7030   -45.1530 C.3          1 MTA901   0.0000
     9 O3'         45.9550    -3.6290   -44.6780 O.3          1 MTA901   0.0000
    10 C1'         42.8500    -3.4740   -46.1110 C.3          1 MTA901   0.0000
    11 N9          41.7730    -2.8170   -46.8630 N.pl3        1 MTA901   0.0000
    12 C8          40.4830    -2.9600   -46.4930 C.2          1 MTA901   0.0000
    13 N7          39.6700    -2.2020   -47.2510 N.2          1 MTA901   1.0000
    14 C5          40.4500    -1.5220   -48.1190 C.ar         1 MTA901   0.0000
    15 C6          40.2130    -0.5380   -49.1830 C.ar         1 MTA901   0.0000
    16 N6          38.9610    -0.1150   -49.4930 N.pl3        1 MTA901   0.0000
    17 N1          41.2860    -0.0750   -49.8510 N.ar         1 MTA901   0.0000
    18 C2          42.5300    -0.4960   -49.5730 C.ar         1 MTA901   0.0000
    19 N3          42.8240    -1.3900   -48.6120 N.ar         1 MTA901   0.0000
    20 C4          41.8320    -1.9190   -47.8610 C.ar         1 MTA901   0.0000
    21 HS1         41.9523    -2.2416   -40.1846 H            1 MTA901   0.0000
    22 HS2         42.6775    -3.2551   -41.2398 H            1 MTA901   0.0000
    23 HS3         43.5727    -2.1929   -40.3812 H            1 MTA901   0.0000
    24 H5'1        44.7025    -1.3341   -42.7413 H            1 MTA901   0.0000
    25 H5'2        43.8349    -0.5756   -43.8982 H            1 MTA901   0.0000
    26 H4'         43.9383    -3.4239   -43.4979 H            1 MTA901   0.0000
    27 H2'         44.2766    -2.3148   -47.0837 H            1 MTA901   0.0000
    28 H8          44.9365    -5.0023   -46.5371 H            1 MTA901   0.0000
    29 H3'         45.3723    -1.7976   -45.2545 H            1 MTA901   0.0000
    30 H10         45.5399    -4.5305   -44.5555 H            1 MTA901   0.0000
    31 H1'         42.7147    -4.4612   -46.0260 H            1 MTA901   0.0000
    32 H12         40.1714    -3.5532   -45.7507 H            1 MTA901   0.0000
    33 H13         38.8261     0.5561   -50.2220 H            1 MTA901   0.0000
    34 H14         38.1735    -0.4744   -48.9923 H            1 MTA901   0.0000
    35 H15         43.2840    -0.1222   -50.1132 H            1 MTA901   0.0000
    36 H16         38.6735    -2.1515   -47.1842 H            1 MTA901   0.0000
@<TRIPOS>BOND
     1    1    2       1
     2    2    3       1
     3    3    4       1
     4    4    5       1
     5    4    8       1
     6    5   10       1
     7    6    7       1
     8    6    8       1
     9    6   10       1
    10    8    9       1
    11   10   11       1
    12   11   12       1
    13   11   20       1
    14   12   13       2
    15   13   14       1
    16   14   15      ar
    17   14   20      ar
    18   15   16       1
    19   15   17      ar
    20   17   18      ar
    21   18   19      ar
    22   19   20      ar
    23    1   21       1
    24    1   22       1
    25    1   23       1
    26    3   24       1
    27    3   25       1
    28    4   26       1
    29    6   27       1
    30    7   28       1
    31    8   29       1
    32    9   30       1
    33   10   31       1
    34   12   32       1
    35   16   33       1
    36   16   34       1
    37   18   35       1
    38   13   36       1
@<TRIPOS>SUBSTRUCTURE
     1 MTA901      1 GROUP             4 D     MTA     0 **** MTA D 901
