@<TRIPOS>MOLECULE
3oz2_FAD_1_ligand
   84    89     1     0     0
SMALL
NO_CHARGES


@<TRIPOS>ATOM
     1 PA          14.2760    44.9600    19.6940 P.3          1 FAD501   0.0000
     2 O1A         13.4280    44.2790    20.7110 O.co2        1 FAD501   0.0000
     3 O2A         15.7700    44.8130    19.8450 O.co2        1 FAD501  -1.0000
     4 O5B         13.8040    44.3850    18.2810 O.3          1 FAD501   0.0000
     5 C5B         14.5440    44.7140    17.1220 C.3          1 FAD501   0.0000
     6 C4B         14.4980    43.4940    16.2240 C.3          1 FAD501   0.0000
     7 O4B         15.1070    43.8310    14.9700 O.3          1 FAD501   0.0000
     8 C3B         15.2380    42.2500    16.7700 C.3          1 FAD501   0.0000
     9 O3B         14.3130    41.1720    16.8990 O.3          1 FAD501   0.0000
    10 C2B         16.3300    42.0270    15.7460 C.3          1 FAD501   0.0000
    11 O2B         16.6950    40.6610    15.5390 O.3          1 FAD501   0.0000
    12 C1B         15.7580    42.6790    14.4910 C.3          1 FAD501   0.0000
    13 N9A         16.7470    43.0460    13.5030 N.pl3        1 FAD501   0.0000
    14 C8A         17.9670    43.5960    13.7260 C.2          1 FAD501   0.0000
    15 N7A         18.6060    43.8050    12.5700 N.2          1 FAD501   0.0000
    16 C5A         17.7550    43.4110    11.5630 C.ar         1 FAD501   0.0000
    17 C6A         17.8850    43.3550    10.1850 C.ar         1 FAD501   0.0000
    18 N6A         18.9690    43.7390     9.4680 N.pl3        1 FAD501   0.0000
    19 N1A         16.8320    42.8310     9.4980 N.ar         1 FAD501   0.0000
    20 C2A         15.7000    42.4050    10.1260 C.ar         1 FAD501   0.0000
    21 N3A         15.5660    42.4190    11.4800 N.ar         1 FAD501   0.0000
    22 C4A         16.5950    42.9440    12.1770 C.ar         1 FAD501   0.0000
    23 N1          13.6610    47.8150    28.5690 N.2          1 FAD501   0.0000
    24 C2          12.5160    47.7670    29.3200 C.2          1 FAD501   0.0000
    25 O2          11.5410    48.4900    29.0080 O.2          1 FAD501   0.0000
    26 N3          12.4680    46.9510    30.4340 N.pl3        1 FAD501   0.0000
    27 C4          13.5510    46.2250    30.8600 C.2          1 FAD501   0.0000
    28 O4          13.4470    45.5150    31.8820 O.2          1 FAD501   0.0000
    29 C4X         14.7180    46.2910    30.0980 C.2          1 FAD501   0.0000
    30 N5          15.8710    45.6250    30.4780 N.2          1 FAD501   0.0000
    31 C5X         16.8980    45.4840    29.5520 C.ar         1 FAD501   0.0000
    32 C6          17.9820    44.6570    29.8860 C.ar         1 FAD501   0.0000
    33 C7          19.0250    44.4530    28.9740 C.ar         1 FAD501   0.0000
    34 C7M         20.1540    43.5430    29.3540 C.3          1 FAD501   0.0000
    35 C8          18.9890    45.0830    27.7260 C.ar         1 FAD501   0.0000
    36 C8M         20.1000    44.9070    26.7030 C.3          1 FAD501   0.0000
    37 C9          17.9040    45.9250    27.4070 C.ar         1 FAD501   0.0000
    38 C9A         16.8540    46.1290    28.3040 C.ar         1 FAD501   0.0000
    39 N10         15.7700    46.9500    28.0130 N.pl3        1 FAD501   0.0000
    40 C10         14.7320    47.0360    28.9000 C.2          1 FAD501   0.0000
    41 C1'         15.5930    47.6570    26.7240 C.3          1 FAD501   0.0000
    42 C2'         14.5520    46.7990    25.8880 C.3          1 FAD501   0.0000
    43 O2'         14.8590    45.4030    25.7900 O.3          1 FAD501   0.0000
    44 C3'         14.5210    47.3770    24.4810 C.3          1 FAD501   0.0000
    45 O3'         14.3850    48.8020    24.6230 O.3          1 FAD501   0.0000
    46 C4'         13.4250    46.8210    23.5810 C.3          1 FAD501   0.0000
    47 O4'         13.7230    45.4710    23.1870 O.3          1 FAD501   0.0000
    48 C5'         13.2600    47.7090    22.3230 C.3          1 FAD501   0.0000
    49 O5'         12.3350    47.1380    21.4260 O.3          1 FAD501   0.0000
    50 P           12.5870    47.3580    19.8580 P.3          1 FAD501   0.0000
    51 O1P         12.9650    48.7710    19.5840 O.co2        1 FAD501   0.0000
    52 O2P         11.4480    46.6930    19.1360 O.co2        1 FAD501  -1.0000
    53 O3P         13.9340    46.5180    19.6110 O.3          1 FAD501   0.0000
    54 H5B1        15.4899    44.9290    17.3651 H            1 FAD501   0.0000
    55 H5B2        14.1319    45.4993    16.6599 H            1 FAD501   0.0000
    56 H4B         13.5415    43.2520    16.0610 H            1 FAD501   0.0000
    57 H3B         15.6435    42.4587    17.6599 H            1 FAD501   0.0000
    58 H5          13.9191    40.9619    16.0042 H            1 FAD501   0.0000
    59 H2B         17.1429    42.5361    16.0290 H            1 FAD501   0.0000
    60 H7          15.8974    40.1470    15.2232 H            1 FAD501   0.0000
    61 H1B         15.0856    42.0663    14.0758 H            1 FAD501   0.0000
    62 H8A         18.3369    43.8146    14.6290 H            1 FAD501   0.0000
    63 H6A1        18.9635    43.6580     8.4713 H            1 FAD501   0.0000
    64 H6A2        19.7744    44.1033     9.9356 H            1 FAD501   0.0000
    65 H2A         14.9391    42.0694     9.5707 H            1 FAD501   0.0000
    66 H13         11.6127    46.8874    30.9483 H            1 FAD501   0.0000
    67 H14         18.0096    44.2109    30.7805 H            1 FAD501   0.0000
    68 H7M1        20.8146    43.5005    28.6045 H            1 FAD501   0.0000
    69 H7M2        20.6037    43.8946    30.1751 H            1 FAD501   0.0000
    70 H7M3        19.7969    42.6268    29.5360 H            1 FAD501   0.0000
    71 H8M1        19.8850    45.4372    25.8828 H            1 FAD501   0.0000
    72 H8M2        20.9640    45.2283    27.0906 H            1 FAD501   0.0000
    73 H8M3        20.1817    43.9397    26.4627 H            1 FAD501   0.0000
    74 H21         17.8863    46.3857    26.5196 H            1 FAD501   0.0000
    75 H1'1        16.4648    47.7145    26.2375 H            1 FAD501   0.0000
    76 H1'2        15.2369    48.5783    26.8800 H            1 FAD501   0.0000
    77 H2'         13.6460    46.9018    26.2987 H            1 FAD501   0.0000
    78 H25         14.4351    44.9141    26.5524 H            1 FAD501   0.0000
    79 H3'         15.4031    47.1903    24.0485 H            1 FAD501   0.0000
    80 H27         14.8285    49.2577    23.8512 H            1 FAD501   0.0000
    81 H4'         12.5634    46.8228    24.0885 H            1 FAD501   0.0000
    82 H29         13.3286    45.2920    22.2857 H            1 FAD501   0.0000
    83 H5'1        14.1455    47.7999    21.8673 H            1 FAD501   0.0000
    84 H5'2        12.9333    48.6126    22.6000 H            1 FAD501   0.0000
@<TRIPOS>BOND
     1    1    2      ar
     2    1    3      ar
     3    1    4       1
     4    1   53       1
     5    4    5       1
     6    5    6       1
     7    6    7       1
     8    6    8       1
     9    7   12       1
    10    8    9       1
    11    8   10       1
    12   10   11       1
    13   10   12       1
    14   12   13       1
    15   13   14       1
    16   13   22       1
    17   14   15       2
    18   15   16       1
    19   16   17      ar
    20   16   22      ar
    21   17   18       1
    22   17   19      ar
    23   19   20      ar
    24   20   21      ar
    25   21   22      ar
    26   23   24       1
    27   23   40       2
    28   24   25       2
    29   24   26       1
    30   26   27       1
    31   27   28       2
    32   27   29       1
    33   29   30       2
    34   29   40       1
    35   30   31       1
    36   31   32      ar
    37   31   38      ar
    38   32   33      ar
    39   33   34       1
    40   33   35      ar
    41   35   36       1
    42   35   37      ar
    43   37   38      ar
    44   38   39       1
    45   39   40       1
    46   39   41       1
    47   41   42       1
    48   42   43       1
    49   42   44       1
    50   44   45       1
    51   44   46       1
    52   46   47       1
    53   46   48       1
    54   48   49       1
    55   49   50       1
    56   50   51      ar
    57   50   52      ar
    58   50   53       1
    59   48   84       1
    60    5   54       1
    61    5   55       1
    62    6   56       1
    63    8   57       1
    64    9   58       1
    65   10   59       1
    66   11   60       1
    67   12   61       1
    68   14   62       1
    69   18   63       1
    70   18   64       1
    71   20   65       1
    72   26   66       1
    73   32   67       1
    74   34   68       1
    75   34   69       1
    76   34   70       1
    77   36   71       1
    78   36   72       1
    79   36   73       1
    80   37   74       1
    81   41   75       1
    82   41   76       1
    83   42   77       1
    84   43   78       1
    85   44   79       1
    86   45   80       1
    87   46   81       1
    88   47   82       1
    89   48   83       1
@<TRIPOS>SUBSTRUCTURE
     1 FAD501      1 GROUP             4 A     FAD     0 **** FAD A 501
