@<TRIPOS>MOLECULE
3cv2_COA_1_ligand
   42    44     1     0     0
SMALL
NO_CHARGES


@<TRIPOS>ATOM
     1 N1A         67.4220    23.3910    31.2710 N.ar         1 COA1002   0.0000
     2 C2A         68.6050    22.6970    31.1350 C.ar         1 COA1002   0.0000
     3 N3A         68.6400    21.3260    31.1930 N.ar         1 COA1002   0.0000
     4 C4A         67.4750    20.6590    31.3780 C.ar         1 COA1002   0.0000
     5 C5A         66.2710    21.3420    31.5280 C.ar         1 COA1002   0.0000
     6 C6A         66.2480    22.7380    31.4600 C.ar         1 COA1002   0.0000
     7 N6A         65.1150    23.4190    31.4750 N.pl3        1 COA1002   0.0000
     8 N7A         65.2960    20.4290    31.7020 N.2          1 COA1002   0.0000
     9 C8A         65.8480    19.2010    31.6890 C.2          1 COA1002   0.0000
    10 N9A         67.1990    19.3320    31.4870 N.pl3        1 COA1002   0.0000
    11 C1B         68.1670    18.2520    31.2770 C.3          1 COA1002   0.0000
    12 C2B         68.3260    17.3920    32.5080 C.3          1 COA1002   0.0000
    13 O2B         69.1700    18.0270    33.4380 O.3          1 COA1002   0.0000
    14 C3B         68.9000    16.1370    31.8820 C.3          1 COA1002   0.0000
    15 O3B         70.2910    16.2710    31.7800 O.3          1 COA1002   0.0000
    16 P3B         71.2530    15.0070    31.9190 P.3          1 COA1002   0.0000
    17 O7A         71.1600    14.5270    33.3310 O.co2        1 COA1002   0.0000
    18 O8A         70.7790    13.9480    30.9530 O.co2        1 COA1002  -1.0000
    19 O9A         72.6320    15.4810    31.5720 O.co2        1 COA1002  -1.0000
    20 C4B         68.3660    16.1200    30.4590 C.3          1 COA1002   0.0000
    21 O4B         67.7340    17.3670    30.2740 O.3          1 COA1002   0.0000
    22 C5B         67.3950    14.9960    30.1430 C.3          1 COA1002   0.0000
    23 O5B         66.1590    15.2490    30.7610 O.3          1 COA1002   0.0000
    24 P1A         65.4040    14.0990    31.5940 P.3          1 COA1002   0.0000
    25 O1A         63.9200    14.4090    31.6500 O.co2        1 COA1002   0.0000
    26 O2A         65.6820    12.7290    31.0210 O.co2        1 COA1002  -1.0000
    27 O3A         66.1380    14.2790    33.0150 O.3          1 COA1002   0.0000
    28 P2A         65.3840    14.2460    34.4330 P.3          1 COA1002   0.0000
    29 O4A         64.7790    15.7360    34.5890 O.co2        1 COA1002   0.0000
    30 O5A         64.2790    13.2190    34.4110 O.co2        1 COA1002  -1.0000
    31 O6A         66.3800    13.9500    35.5320 O.co2        1 COA1002  -1.0000
    32 H2A         69.4556    23.2028    30.9911 H            1 COA1002   0.0000
    33 H6A1        64.2469    22.9424    31.6140 H            1 COA1002   0.0000
    34 H6A2        65.1260    24.4108    31.3474 H            1 COA1002   0.0000
    35 H8A         65.3561    18.3384    31.8068 H            1 COA1002   0.0000
    36 H1B         69.0527    18.6402    31.0223 H            1 COA1002   0.0000
    37 H2B         67.4344    17.2013    32.9186 H            1 COA1002   0.0000
    38 H7          69.6553    17.3360    33.9737 H            1 COA1002   0.0000
    39 H3B         68.6402    15.3147    32.3882 H            1 COA1002   0.0000
    40 H4B         69.1402    16.0587    29.8290 H            1 COA1002   0.0000
    41 H5B1        67.7655    14.1315    30.4827 H            1 COA1002   0.0000
    42 H5B2        67.2657    14.9372    29.1531 H            1 COA1002   0.0000
@<TRIPOS>BOND
     1    1    2      ar
     2    1    6      ar
     3    2    3      ar
     4    3    4      ar
     5    4    5      ar
     6    4   10       1
     7    5    6      ar
     8    5    8       1
     9    6    7       1
    10    8    9       2
    11    9   10       1
    12   10   11       1
    13   11   12       1
    14   11   21       1
    15   12   13       1
    16   12   14       1
    17   14   15       1
    18   14   20       1
    19   15   16       1
    20   16   17      ar
    21   16   18      ar
    22   16   19      ar
    23   20   21       1
    24   20   22       1
    25   22   23       1
    26   23   24       1
    27   24   25      ar
    28   24   26      ar
    29   24   27       1
    30   27   28       1
    31   28   29      ar
    32   28   30      ar
    33   28   31      ar
    34    2   32       1
    35    7   33       1
    36    7   34       1
    37    9   35       1
    38   11   36       1
    39   12   37       1
    40   13   38       1
    41   14   39       1
    42   22   41       1
    43   22   42       1
    44   20   40       1
@<TRIPOS>SUBSTRUCTURE
     1 COA1002     1 GROUP             4 A     COA     0 **** COA A1002
