@<TRIPOS>MOLECULE
4j4v_SVR_3_ligand
   46    48     1     0     0
SMALL
NO_CHARGES


@<TRIPOS>ATOM
     1 N53         59.8240    -1.1840    18.9640 N.pl3        1 SVR301   0.0000
     2 C55         58.3720    -1.2940    18.8380 C.ar         1 SVR301   0.0000
     3 C56         57.7730    -2.5490    18.7230 C.ar         1 SVR301   0.0000
     4 C57         57.5970    -0.1420    18.8350 C.ar         1 SVR301   0.0000
     5 C59         58.2370     1.2000    18.9600 C.3          1 SVR301   0.0000
     6 C60         56.2200    -0.2260    18.7160 C.ar         1 SVR301   0.0000
     7 C62         55.6130    -1.4660    18.6010 C.ar         1 SVR301   0.0000
     8 C58         56.3720    -2.6360    18.5920 C.ar         1 SVR301   0.0000
     9 C61         55.6510    -3.9610    18.4740 C.2          1 SVR301   0.0000
    10 O64         56.2640    -5.0120    18.5970 O.2          1 SVR301   0.0000
    11 N63         54.2140    -3.8780    18.2160 N.am         1 SVR301   0.0000
    12 C65         53.2340    -4.9340    18.0950 C.ar         1 SVR301   0.0000
    13 C67         53.2970    -5.9600    19.0130 C.ar         1 SVR301   0.0000
    14 C70         52.3990    -6.9900    19.0100 C.ar         1 SVR301   0.0000
    15 C71         51.3710    -7.0290    18.0970 C.ar         1 SVR301   0.0000
    16 S75         50.2640    -8.4170    18.1900 S.o2         1 SVR301   0.0000
    17 O80         50.0140    -8.9830    16.8880 O.co2        1 SVR301   0.0000
    18 O81         50.8210    -9.5530    18.8850 O.co2        1 SVR301   0.0000
    19 O82         49.0080    -8.0000    18.8320 O.co2        1 SVR301  -1.0000
    20 C66         52.1790    -4.9180    17.1370 C.ar         1 SVR301   0.0000
    21 C68         51.2490    -6.0080    17.1540 C.ar         1 SVR301   0.0000
    22 C72         50.2110    -6.0360    16.2150 C.ar         1 SVR301   0.0000
    23 C69         52.0030    -3.9080    16.1590 C.ar         1 SVR301   0.0000
    24 S73         53.0490    -2.4910    15.9740 S.o2         1 SVR301   0.0000
    25 O77         52.7990    -1.7850    14.7420 O.co2        1 SVR301   0.0000
    26 O78         54.4340    -2.8710    15.8140 O.co2        1 SVR301   0.0000
    27 O79         52.8800    -1.5880    17.1140 O.co2        1 SVR301  -1.0000
    28 C74         50.9580    -3.9960    15.2630 C.ar         1 SVR301   0.0000
    29 C76         50.0800    -5.0400    15.2920 C.ar         1 SVR301   0.0000
    30 S83         48.7520    -5.1310    14.1410 S.o2         1 SVR301   0.0000
    31 O85         47.6490    -5.9310    14.7020 O.co2        1 SVR301   0.0000
    32 O86         48.2950    -3.8210    13.7470 O.co2        1 SVR301   0.0000
    33 O84         49.2010    -5.6790    12.8870 O.co2        1 SVR301  -1.0000
    34 H1          60.2520    -0.2840    19.0463 H            1 SVR301   0.0000
    35 H2          60.3895    -2.0088    18.9679 H            1 SVR301   0.0000
    36 H3          58.3318    -3.3782    18.7334 H            1 SVR301   0.0000
    37 H4          57.5319     1.9088    18.9391 H            1 SVR301   0.0000
    38 H5          58.7363     1.2519    19.8248 H            1 SVR301   0.0000
    39 H6          58.8717     1.3387    18.1998 H            1 SVR301   0.0000
    40 H7          55.6653     0.6060    18.7131 H            1 SVR301   0.0000
    41 H8          54.6176    -1.5229    18.5234 H            1 SVR301   0.0000
    42 H9          53.8551    -2.9511    18.1068 H            1 SVR301   0.0000
    43 H10         54.0217    -5.9504    19.7020 H            1 SVR301   0.0000
    44 H11         52.4905    -7.7258    19.6810 H            1 SVR301   0.0000
    45 H12         49.5588    -6.7940    16.2209 H            1 SVR301   0.0000
    46 H13         50.8412    -3.2783    14.5765 H            1 SVR301   0.0000
@<TRIPOS>BOND
     1    1    2       1
     2    2    3      ar
     3    2    4      ar
     4    3    8      ar
     5    4    5       1
     6    4    6      ar
     7    6    7      ar
     8    7    8      ar
     9    8    9       1
    10    9   10       2
    11    9   11      am
    12   11   12       1
    13   12   13      ar
    14   12   20      ar
    15   13   14      ar
    16   14   15      ar
    17   15   16       1
    18   15   21      ar
    19   16   17      ar
    20   16   18      ar
    21   16   19      ar
    22   20   21      ar
    23   20   23      ar
    24   21   22      ar
    25   22   29      ar
    26   23   24       1
    27   23   28      ar
    28   24   25      ar
    29   24   26      ar
    30   24   27      ar
    31   28   29      ar
    32   29   30       1
    33   30   31      ar
    34   30   32      ar
    35   30   33      ar
    36    1   34       1
    37    1   35       1
    38    3   36       1
    39    5   37       1
    40    5   38       1
    41    5   39       1
    42    6   40       1
    43    7   41       1
    44   11   42       1
    45   13   43       1
    46   14   44       1
    47   28   46       1
    48   22   45       1
@<TRIPOS>SUBSTRUCTURE
     1 SVR301      1 GROUP             4 C     SVR     0 **** SVR C 301
