@<TRIPOS>MOLECULE
4ej0_NAP_8_ligand
   73    77     1     0     0
SMALL
NO_CHARGES


@<TRIPOS>ATOM
     1 PA           0.3920    -2.8920    40.3900 P.3          1 NAP401   0.0000
     2 O1A          0.4420    -3.2330    38.9180 O.co2        1 NAP401   0.0000
     3 O2A          0.6590    -1.3810    40.5520 O.co2        1 NAP401  -1.0000
     4 O5B          1.4910    -3.6500    41.2620 O.3          1 NAP401   0.0000
     5 C5B          1.9990    -4.8760    40.9510 C.3          1 NAP401   0.0000
     6 C4B          3.4050    -4.8680    40.4740 C.3          1 NAP401   0.0000
     7 O4B          4.0310    -6.1180    40.5670 O.3          1 NAP401   0.0000
     8 C3B          3.4250    -4.4940    39.0530 C.3          1 NAP401   0.0000
     9 O3B          4.3890    -3.5150    38.8400 O.3          1 NAP401   0.0000
    10 C2B          3.7600    -5.6870    38.3820 C.3          1 NAP401   0.0000
    11 O2B          4.4630    -5.3510    37.2140 O.3          1 NAP401   0.0000
    12 C1B          4.5850    -6.4520    39.3270 C.3          1 NAP401   0.0000
    13 N9A          4.4310    -7.8840    39.2450 N.pl3        1 NAP401   0.0000
    14 C8A          3.6000    -8.5650    38.4530 C.2          1 NAP401   0.0000
    15 N7A          3.7080    -9.8980    38.6960 N.2          1 NAP401   0.0000
    16 C5A          4.6060   -10.0610    39.6720 C.ar         1 NAP401   0.0000
    17 C6A          5.1110   -11.1790    40.3430 C.ar         1 NAP401   0.0000
    18 N6A          4.6700   -12.5170    40.0060 N.pl3        1 NAP401   0.0000
    19 N1A          6.0360   -10.9900    41.2880 N.ar         1 NAP401   0.0000
    20 C2A          6.4640    -9.7590    41.5980 C.ar         1 NAP401   0.0000
    21 N3A          6.0030    -8.6620    40.9920 N.ar         1 NAP401   0.0000
    22 C4A          5.0730    -8.7870    40.0210 C.ar         1 NAP401   0.0000
    23 O3          -1.0800    -3.1690    40.9070 O.3          1 NAP401   0.0000
    24 PN          -1.5620    -3.0040    42.3820 P.3          1 NAP401   0.0000
    25 O1N         -2.8120    -2.1840    42.3270 O.co2        1 NAP401   0.0000
    26 O2N         -0.5980    -2.3190    43.2870 O.co2        1 NAP401  -1.0000
    27 O5D         -1.8990    -4.4370    42.8760 O.3          1 NAP401   0.0000
    28 C5D         -1.2480    -5.1770    43.8230 C.3          1 NAP401   0.0000
    29 C4D         -1.9860    -6.3490    44.1640 C.3          1 NAP401   0.0000
    30 O4D         -3.3160    -5.8930    44.5570 O.3          1 NAP401   0.0000
    31 C3D         -2.2220    -7.2520    43.0160 C.3          1 NAP401   0.0000
    32 O3D         -1.9430    -8.5550    43.3550 O.3          1 NAP401   0.0000
    33 C2D         -3.6420    -7.0970    42.6530 C.3          1 NAP401   0.0000
    34 O2D         -4.1650    -8.2470    42.1870 O.3          1 NAP401   0.0000
    35 C1D         -4.2770    -6.6810    43.9330 C.3          1 NAP401   0.0000
    36 N1N         -5.5240    -5.9110    43.7680 N.ar         1 NAP401   1.0000
    37 C2N         -5.4640    -4.5640    43.6020 C.ar         1 NAP401   0.0000
    38 C3N         -6.6300    -3.8020    43.4590 C.ar         1 NAP401   0.0000
    39 C7N         -6.5460    -2.2620    43.2380 C.2          1 NAP401   0.0000
    40 O7N         -7.5541    -1.5982    42.9404 O.2          1 NAP401   0.0000
    41 N7N         -5.2872    -1.5250    43.3584 N.am         1 NAP401   0.0000
    42 C4N         -7.8770    -4.4480    43.5050 C.ar         1 NAP401   0.0000
    43 C5N         -7.9020    -5.8420    43.6870 C.ar         1 NAP401   0.0000
    44 C6N         -6.7080    -6.5620    43.8210 C.ar         1 NAP401   0.0000
    45 P2B          4.2640    -6.2330    35.8970 P.3          1 NAP401   0.0000
    46 O1X          2.8500    -6.7450    35.8250 O.co2        1 NAP401   0.0000
    47 O2X          4.5690    -5.3610    34.7040 O.co2        1 NAP401  -1.0000
    48 O3X          5.2090    -7.4020    35.9200 O.co2        1 NAP401  -1.0000
    49 H5B1         1.4295    -5.2749    40.2323 H            1 NAP401   0.0000
    50 H5B2         1.9521    -5.4484    41.7697 H            1 NAP401   0.0000
    51 H4B          3.9281    -4.1969    40.9994 H            1 NAP401   0.0000
    52 H3B          2.5248    -4.1691    38.7629 H            1 NAP401   0.0000
    53 H5           5.2868    -3.8686    39.1025 H            1 NAP401   0.0000
    54 H2B          2.9322    -6.1989    38.1524 H            1 NAP401   0.0000
    55 H1B          5.5469    -6.1841    39.2724 H            1 NAP401   0.0000
    56 H8A          2.9867    -8.1540    37.7785 H            1 NAP401   0.0000
    57 H6A1         5.0424   -13.3047    40.4968 H            1 NAP401   0.0000
    58 H6A2         3.9932   -12.6530    39.2825 H            1 NAP401   0.0000
    59 H2A          7.1567    -9.6575    42.3121 H            1 NAP401   0.0000
    60 H5D1        -1.1249    -4.6194    44.6440 H            1 NAP401   0.0000
    61 H5D2        -0.3537    -5.4476    43.4667 H            1 NAP401   0.0000
    62 H4D         -1.5439    -6.8395    44.9150 H            1 NAP401   0.0000
    63 H3D         -1.6465    -6.9746    42.2467 H            1 NAP401   0.0000
    64 H16         -0.9822    -8.7518    43.1599 H            1 NAP401   0.0000
    65 H2D         -3.7434    -6.3737    41.9700 H            1 NAP401   0.0000
    66 H18         -3.6617    -8.5363    41.3728 H            1 NAP401   0.0000
    67 H1D         -4.4577    -7.4899    44.4925 H            1 NAP401   0.0000
    68 H2N         -4.5734    -4.1097    43.5816 H            1 NAP401   0.0000
    69 H7N1        -5.2681    -0.5383    43.1971 H            1 NAP401   0.0000
    70 H7N2        -4.4462    -2.0082    43.6020 H            1 NAP401   0.0000
    71 H4N         -8.7264    -3.9287    43.4106 H            1 NAP401   0.0000
    72 H5N         -8.7782    -6.3227    43.7210 H            1 NAP401   0.0000
    73 H6N         -6.7311    -7.5527    43.9552 H            1 NAP401   0.0000
@<TRIPOS>BOND
     1    1    2      ar
     2    1    3      ar
     3    1    4       1
     4    1   23       1
     5    4    5       1
     6    5    6       1
     7    6    7       1
     8    6    8       1
     9    7   12       1
    10    8    9       1
    11    8   10       1
    12   10   11       1
    13   10   12       1
    14   11   45       1
    15   12   13       1
    16   13   14       1
    17   13   22       1
    18   14   15       2
    19   15   16       1
    20   16   17      ar
    21   16   22      ar
    22   17   18       1
    23   17   19      ar
    24   19   20      ar
    25   20   21      ar
    26   21   22      ar
    27   23   24       1
    28   24   25      ar
    29   24   26      ar
    30   24   27       1
    31   27   28       1
    32   28   29       1
    33   29   30       1
    34   29   31       1
    35   30   35       1
    36   31   32       1
    37   31   33       1
    38   33   34       1
    39   33   35       1
    40   35   36       1
    41   36   37      ar
    42   36   44      ar
    43   37   38      ar
    44   38   39       1
    45   38   42      ar
    46   39   40       2
    47   39   41      am
    48   42   43      ar
    49   43   44      ar
    50   45   46      ar
    51   45   47      ar
    52   45   48      ar
    53   43   72       1
    54    5   49       1
    55    5   50       1
    56    6   51       1
    57    8   52       1
    58    9   53       1
    59   10   54       1
    60   12   55       1
    61   14   56       1
    62   18   57       1
    63   18   58       1
    64   20   59       1
    65   44   73       1
    66   28   60       1
    67   28   61       1
    68   29   62       1
    69   31   63       1
    70   32   64       1
    71   33   65       1
    72   34   66       1
    73   35   67       1
    74   37   68       1
    75   41   69       1
    76   41   70       1
    77   42   71       1
@<TRIPOS>SUBSTRUCTURE
     1 NAP401      1 GROUP             4 H     NAP     0 **** NAP H 401
