@<TRIPOS>MOLECULE
3plp_BBA_1_ligand
   58    60     1     0     0
SMALL
NO_CHARGES


@<TRIPOS>ATOM
     1 C8          14.0940    20.4480    32.0880 C.3          1 BBA481   0.0000
     2 C9          13.2910    19.4870    32.9530 C.ar         1 BBA481   0.0000
     3 C14         13.8020    19.0480    34.1770 C.ar         1 BBA481   0.0000
     4 C13         13.0890    18.1320    34.9470 C.ar         1 BBA481   0.0000
     5 C10         12.0670    18.9650    32.5020 C.ar         1 BBA481   0.0000
     6 C11         11.3470    18.0570    33.2760 C.ar         1 BBA481   0.0000
     7 C12         11.8650    17.6290    34.5130 C.ar         1 BBA481   0.0000
     8 C15         11.1050    16.6460    35.3640 C.cat        1 BBA481   0.0000
     9 N16          9.7920    16.5030    35.1420 N.pl3        1 BBA481   1.0000
    10 N17         11.6860    15.9610    36.2830 N.pl3        1 BBA481   0.0000
    11 C18         16.5020    23.6580    34.9380 C.3          1 BBA481   0.0000
    12 C19         15.4510    24.4300    35.7310 C.ar         1 BBA481   0.0000
    13 C20         15.3090    24.3680    37.1330 C.ar         1 BBA481   0.0000
    14 C21         14.3450    25.1510    37.8100 C.ar         1 BBA481   0.0000
    15 C24         14.6330    25.2980    35.0290 C.ar         1 BBA481   0.0000
    16 C23         13.6830    26.0700    35.6890 C.ar         1 BBA481   0.0000
    17 C22         13.5290    26.0240    37.0680 C.ar         1 BBA481   0.0000
    18 C25         12.4770    26.9130    37.6700 C.cat        1 BBA481   0.0000
    19 N26         11.4010    27.2450    36.9580 N.pl3        1 BBA481   1.0000
    20 N27         12.6140    27.3960    38.8190 N.pl3        1 BBA481   0.0000
    21 C1          14.2840    21.8980    32.5320 C.3          1 BBA481   0.0000
    22 C2          15.0340    22.7000    31.4510 C.3          1 BBA481   0.0000
    23 C3          16.4160    22.1790    31.0540 C.3          1 BBA481   0.0000
    24 C           17.4450    22.6140    32.0920 C.3          1 BBA481   0.0000
    25 C4          17.3170    21.7920    33.3690 C.3          1 BBA481   0.0000
    26 C5          16.2510    22.2510    34.3820 C.3          1 BBA481   0.0000
    27 C6          14.8310    22.0400    33.9440 C.2          1 BBA481   0.0000
    28 O7          14.0300    21.9700    34.8450 O.2          1 BBA481   0.0000
    29 H1          13.6456    20.4759    31.1946 H            1 BBA481   0.0000
    30 H2          15.0078    20.0538    31.9902 H            1 BBA481   0.0000
    31 H3          14.6829    19.3927    34.5015 H            1 BBA481   0.0000
    32 H4          13.4617    17.8310    35.8248 H            1 BBA481   0.0000
    33 H5          11.7075    19.2490    31.6131 H            1 BBA481   0.0000
    34 H6          10.4658    17.7108    32.9540 H            1 BBA481   0.0000
    35 H7           9.2595    15.8582    35.6904 H            1 BBA481   0.0000
    36 H8           9.3441    17.0410    34.4279 H            1 BBA481   0.0000
    37 H9          11.1582    15.3148    36.8342 H            1 BBA481   0.0000
    38 H10         17.2994    23.5811    35.5366 H            1 BBA481   0.0000
    39 H11         16.7304    24.2304    34.1504 H            1 BBA481   0.0000
    40 H12         15.9018    23.7582    37.6590 H            1 BBA481   0.0000
    41 H13         14.2449    25.0848    38.8028 H            1 BBA481   0.0000
    42 H14         14.7261    25.3709    34.0360 H            1 BBA481   0.0000
    43 H15         13.0936    26.6759    35.1547 H            1 BBA481   0.0000
    44 H16         10.7003    27.8363    37.3571 H            1 BBA481   0.0000
    45 H17         11.2941    26.9029    36.0245 H            1 BBA481   0.0000
    46 H18         11.9025    27.9853    39.2017 H            1 BBA481   0.0000
    47 H19         13.3642    22.2892    32.5628 H            1 BBA481   0.0000
    48 H20         15.1466    23.6345    31.7888 H            1 BBA481   0.0000
    49 H21         14.4646    22.7090    30.6290 H            1 BBA481   0.0000
    50 H22         16.6675    22.5505    30.1603 H            1 BBA481   0.0000
    51 H23         16.3938    21.1804    31.0057 H            1 BBA481   0.0000
    52 H24         17.3017    23.5795    32.3093 H            1 BBA481   0.0000
    53 H25         18.3626    22.4899    31.7143 H            1 BBA481   0.0000
    54 H26         18.2032    21.8109    33.8319 H            1 BBA481   0.0000
    55 H27         17.0992    20.8526    33.1043 H            1 BBA481   0.0000
    56 H28         16.3679    21.6428    35.1671 H            1 BBA481   0.0000
    57 H29         12.6660    16.0742    36.4470 H            1 BBA481   0.0000
    58 H30         13.4347    27.1919    39.3526 H            1 BBA481   0.0000
@<TRIPOS>BOND
     1    1    2       1
     2    1   21       1
     3    2    3      ar
     4    2    5      ar
     5    3    4      ar
     6    4    7      ar
     7    5    6      ar
     8    6    7      ar
     9    7    8       1
    10    8    9      ar
    11    8   10      ar
    12   11   12       1
    13   11   26       1
    14   12   13      ar
    15   12   15      ar
    16   13   14      ar
    17   14   17      ar
    18   15   16      ar
    19   16   17      ar
    20   17   18       1
    21   18   19      ar
    22   18   20      ar
    23   21   22       1
    24   21   27       1
    25   22   23       1
    26   23   24       1
    27   24   25       1
    28   25   26       1
    29   26   27       1
    30   27   28       2
    31    1   29       1
    32    1   30       1
    33    3   31       1
    34    4   32       1
    35    5   33       1
    36    6   34       1
    37    9   35       1
    38    9   36       1
    39   10   37       1
    40   11   38       1
    41   11   39       1
    42   13   40       1
    43   14   41       1
    44   15   42       1
    45   16   43       1
    46   19   44       1
    47   19   45       1
    48   20   46       1
    49   21   47       1
    50   22   48       1
    51   22   49       1
    52   23   50       1
    53   23   51       1
    54   24   52       1
    55   24   53       1
    56   25   54       1
    57   25   55       1
    58   26   56       1
    59   10   57       1
    60   20   58       1
@<TRIPOS>SUBSTRUCTURE
     1 BBA481      1 GROUP             4 A     BBA     0 **** BBA A 481
