@<TRIPOS>MOLECULE
4equ_G6I_2_ligand
   66    70     1     0     0
SMALL
NO_CHARGES


@<TRIPOS>ATOM
     1 CAA         58.9040   -26.2770    53.8270 C.3          1 G6I401   0.0000
     2 OBC         58.1010   -25.7640    54.9500 O.3          1 G6I401   0.0000
     3 CBH         58.2900   -24.4540    55.3370 C.ar         1 G6I401   0.0000
     4 CAR         58.7740   -23.4520    54.4910 C.ar         1 G6I401   0.0000
     5 CAP         58.9460   -22.1310    54.9380 C.ar         1 G6I401   0.0000
     6 CAS         57.9570   -24.1120    56.6300 C.ar         1 G6I401   0.0000
     7 CAQ         58.1220   -22.8130    57.0760 C.ar         1 G6I401   0.0000
     8 CBF         58.6200   -21.8020    56.2510 C.ar         1 G6I401   0.0000
     9 NBA         58.7410   -20.5800    56.8240 N.pl3        1 G6I401   0.0000
    10 CBK         59.3140   -19.4630    56.3410 C.ar         1 G6I401   0.0000
    11 NAY         59.7810   -19.3390    55.0820 N.ar         1 G6I401   0.0000
    12 NAW         59.3830   -18.4010    57.1750 N.ar         1 G6I401   0.0000
    13 CAJ         59.9150   -17.2780    56.7070 C.ar         1 G6I401   0.0000
    14 NAX         60.3440   -17.1460    55.4660 N.ar         1 G6I401   0.0000
    15 CBM         60.3010   -18.1880    54.6360 C.ar         1 G6I401   0.0000
    16 CBO         60.8040   -18.1100    53.3210 C.ar         1 G6I401   0.0000
    17 CAN         60.7990   -19.2950    52.5680 C.ar         1 G6I401   0.0000
    18 CAG         61.2860   -19.2930    51.2560 C.ar         1 G6I401   0.0000
    19 CAI         61.7630   -18.0970    50.7360 C.ar         1 G6I401   0.0000
    20 NAV         61.7360   -16.9780    51.4630 N.ar         1 G6I401   0.0000
    21 CBN         61.3080   -16.9290    52.7290 C.ar         1 G6I401   0.0000
    22 NBB         61.3400   -15.7550    53.3660 N.pl3        1 G6I401   0.0000
    23 CBL         61.9400   -14.6320    52.9060 C.ar         1 G6I401   0.0000
    24 CAT         61.1780   -13.5620    52.4150 C.ar         1 G6I401   0.0000
    25 CBE         63.3400   -14.4720    52.9340 C.ar         1 G6I401   0.0000
    26 CAB         64.2730   -15.5480    53.4680 C.3          1 G6I401   0.0000
    27 CAM         63.9130   -13.3040    52.4690 C.ar         1 G6I401   0.0000
    28 CAO         63.1240   -12.2840    51.9670 C.ar         1 G6I401   0.0000
    29 CBG         61.7380   -12.3870    51.9190 C.ar         1 G6I401   0.0000
    30 NAZ         61.0570   -11.3050    51.4380 N.am         1 G6I401   0.0000
    31 CBD         59.7100   -11.0980    51.5200 C.2          1 G6I401   0.0000
    32 OAC         58.8950   -11.9190    51.9570 O.2          1 G6I401   0.0000
    33 CBI         59.1900    -9.7550    50.9590 C.ar         1 G6I401   0.0000
    34 CAU         57.9880    -9.2280    51.4330 C.ar         1 G6I401   0.0000
    35 CAK         59.8910    -9.0540    49.9630 C.ar         1 G6I401   0.0000
    36 CAH         59.3910    -7.8500    49.4740 C.ar         1 G6I401   0.0000
    37 CAL         58.1940    -7.3150    49.9710 C.ar         1 G6I401   0.0000
    38 CBJ         57.4920    -8.0180    50.9550 C.ar         1 G6I401   0.0000
    39 CBP         56.1720    -7.4660    51.5130 C.3          1 G6I401   0.0000
    40 FAF         55.3440    -8.4420    51.7810 F            1 G6I401   0.0000
    41 FAD         56.4640    -6.7910    52.6070 F            1 G6I401   0.0000
    42 FAE         55.5530    -6.6870    50.6490 F            1 G6I401   0.0000
    43 HAA1        58.6655   -27.2330    53.6560 H            1 G6I401   0.0000
    44 HAA2        58.7162   -25.7349    53.0079 H            1 G6I401   0.0000
    45 HAA3        59.8755   -26.2114    54.0546 H            1 G6I401   0.0000
    46 HAR         59.0034   -23.6808    53.5449 H            1 G6I401   0.0000
    47 HAP         59.3003   -21.4317    54.3171 H            1 G6I401   0.0000
    48 HAS         57.5937   -24.8076    57.2498 H            1 G6I401   0.0000
    49 HAQ         57.8768   -22.5906    58.0196 H            1 G6I401   0.0000
    50 HBA         58.3469   -20.4965    57.7393 H            1 G6I401   0.0000
    51 HAJ         59.9943   -16.4952    57.3242 H            1 G6I401   0.0000
    52 HAN         60.4473   -20.1407    52.9693 H            1 G6I401   0.0000
    53 HAG         61.2904   -20.1296    50.7082 H            1 G6I401   0.0000
    54 HAI         62.1309   -18.0739    49.8064 H            1 G6I401   0.0000
    55 HBB         60.8839   -15.7015    54.2543 H            1 G6I401   0.0000
    56 HAT         60.1816   -13.6469    52.4213 H            1 G6I401   0.0000
    57 HAB1        65.2196   -15.2336    53.3971 H            1 G6I401   0.0000
    58 HAB2        64.0543   -15.7334    54.4260 H            1 G6I401   0.0000
    59 HAB3        64.1585   -16.3844    52.9320 H            1 G6I401   0.0000
    60 HAM         64.9067   -13.1947    52.4954 H            1 G6I401   0.0000
    61 HAO         63.5621   -11.4507    51.6298 H            1 G6I401   0.0000
    62 HAZ         61.5965   -10.5970    50.9823 H            1 G6I401   0.0000
    63 HAU         57.4733    -9.7287    52.1289 H            1 G6I401   0.0000
    64 HAK         60.7499    -9.4203    49.6050 H            1 G6I401   0.0000
    65 HAH         59.8916    -7.3609    48.7597 H            1 G6I401   0.0000
    66 HAL         57.8471    -6.4427    49.6265 H            1 G6I401   0.0000
@<TRIPOS>BOND
     1    1    2       1
     2    2    3       1
     3    3    4      ar
     4    3    6      ar
     5    4    5      ar
     6    5    8      ar
     7    6    7      ar
     8    7    8      ar
     9    8    9       1
    10    9   10       1
    11   10   11      ar
    12   10   12      ar
    13   11   15      ar
    14   12   13      ar
    15   13   14      ar
    16   14   15      ar
    17   15   16       1
    18   16   17      ar
    19   16   21      ar
    20   17   18      ar
    21   18   19      ar
    22   19   20      ar
    23   20   21      ar
    24   21   22       1
    25   22   23       1
    26   23   24      ar
    27   23   25      ar
    28   24   29      ar
    29   25   26       1
    30   25   27      ar
    31   27   28      ar
    32   28   29      ar
    33   29   30       1
    34   30   31      am
    35   31   32       2
    36   31   33       1
    37   33   34      ar
    38   33   35      ar
    39   34   38      ar
    40   35   36      ar
    41   36   37      ar
    42   37   38      ar
    43   38   39       1
    44   39   40       1
    45   39   41       1
    46   39   42       1
    47    1   43       1
    48    1   44       1
    49    1   45       1
    50    4   46       1
    51    5   47       1
    52    6   48       1
    53    7   49       1
    54    9   50       1
    55   13   51       1
    56   17   52       1
    57   18   53       1
    58   19   54       1
    59   22   55       1
    60   24   56       1
    61   26   57       1
    62   26   58       1
    63   26   59       1
    64   27   60       1
    65   28   61       1
    66   30   62       1
    67   34   63       1
    68   35   64       1
    69   36   65       1
    70   37   66       1
@<TRIPOS>SUBSTRUCTURE
     1 G6I401      1 GROUP             4 B     G6I     0 **** G6I B 401
