@<TRIPOS>MOLECULE
1fbm_RTL_1_ligand
   53    53     1     0     0
SMALL
NO_CHARGES


@<TRIPOS>ATOM
     1 C1          29.2390    47.8000    -1.9220 C.3          1 RTL951   0.0000
     2 C2          28.9030    48.3950    -0.5190 C.3          1 RTL951   0.0000
     3 C3          29.8370    48.0100     0.6180 C.3          1 RTL951   0.0000
     4 C4          30.9540    47.1010     0.1370 C.3          1 RTL951   0.0000
     5 C5          31.4960    47.4840    -1.2560 C.2          1 RTL951   0.0000
     6 C6          30.7540    47.8990    -2.3400 C.3          1 RTL951   0.0000
     7 C7          31.2540    47.2950    -3.6040 C.2          1 RTL951   0.0000
     8 C8          32.3640    47.8120    -4.2770 C.2          1 RTL951   0.0000
     9 C9          32.7730    47.1160    -5.5070 C.2          1 RTL951   0.0000
    10 C10         33.8520    47.7870    -6.0120 C.2          1 RTL951   0.0000
    11 C11         34.2860    47.1070    -7.2360 C.2          1 RTL951   0.0000
    12 C12         35.3740    47.7250    -7.8060 C.2          1 RTL951   0.0000
    13 C13         35.8410    46.9840    -8.9890 C.3          1 RTL951   0.0000
    14 C14         36.9270    47.6230    -9.5430 C.3          1 RTL951   0.0000
    15 C15         37.3720    46.8840   -10.7320 C.3          1 RTL951   0.0000
    16 O1          38.4460    47.4980   -11.2990 O.3          1 RTL951   0.0000
    17 C16         28.5690    48.8340    -2.7680 C.3          1 RTL951   0.0000
    18 C17         28.5080    46.4700    -2.0600 C.3          1 RTL951   0.0000
    19 C18         33.0100    47.3970    -1.2340 C.2          1 RTL951   0.0000
    20 C19         31.8870    45.8980    -5.7960 C.3          1 RTL951   0.0000
    21 C20         36.2760    45.5520    -8.6320 C.3          1 RTL951   0.0000
    22 H1          27.9822    48.0926    -0.2725 H            1 RTL951   0.0000
    23 H2          28.9161    49.3916    -0.5997 H            1 RTL951   0.0000
    24 H3          29.3115    47.5339     1.3231 H            1 RTL951   0.0000
    25 H4          30.2377    48.8406     1.0047 H            1 RTL951   0.0000
    26 H5          30.6054    46.1646     0.0954 H            1 RTL951   0.0000
    27 H6          31.7064    47.1478     0.7941 H            1 RTL951   0.0000
    28 H7          30.9392    48.8780    -2.4256 H            1 RTL951   0.0000
    29 H8          30.7833    46.4978    -3.9821 H            1 RTL951   0.0000
    30 H9          32.8557    48.6147    -3.9396 H            1 RTL951   0.0000
    31 H10         34.2731    48.6022    -5.6144 H            1 RTL951   0.0000
    32 H11         33.8441    46.2921    -7.6111 H            1 RTL951   0.0000
    33 H12         35.7923    48.5659    -7.4626 H            1 RTL951   0.0000
    34 H13         35.1040    46.9446    -9.6637 H            1 RTL951   0.0000
    35 H14         37.6700    47.6588    -8.8747 H            1 RTL951   0.0000
    36 H15         36.6693    48.5530    -9.8050 H            1 RTL951   0.0000
    37 H16         36.6250    46.8477   -11.3959 H            1 RTL951   0.0000
    38 H17         37.6268    45.9544   -10.4657 H            1 RTL951   0.0000
    39 H18         39.2236    46.8693   -11.3068 H            1 RTL951   0.0000
    40 H19         28.6884    48.6031    -3.7336 H            1 RTL951   0.0000
    41 H20         27.5934    48.8620    -2.5501 H            1 RTL951   0.0000
    42 H21         28.9769    49.7288    -2.5863 H            1 RTL951   0.0000
    43 H22         28.7096    46.0700    -2.9541 H            1 RTL951   0.0000
    44 H23         28.8117    45.8464    -1.3397 H            1 RTL951   0.0000
    45 H24         27.5230    46.6208    -1.9768 H            1 RTL951   0.0000
    46 H25         33.5352    47.6125    -2.0572 H            1 RTL951   0.0000
    47 H26         33.4830    47.1242    -0.3963 H            1 RTL951   0.0000
    48 H27         32.1956    45.4533    -6.6369 H            1 RTL951   0.0000
    49 H28         31.9496    45.2522    -5.0351 H            1 RTL951   0.0000
    50 H29         30.9381    46.1943    -5.9045 H            1 RTL951   0.0000
    51 H30         36.5857    45.0819    -9.4585 H            1 RTL951   0.0000
    52 H31         37.0231    45.5863    -7.9682 H            1 RTL951   0.0000
    53 H32         35.5019    45.0571    -8.2373 H            1 RTL951   0.0000
@<TRIPOS>BOND
     1    1    2       1
     2    1    6       1
     3    1   17       1
     4    1   18       1
     5    2    3       1
     6    3    4       1
     7    4    5       1
     8    5    6       1
     9    5   19       2
    10    6    7       1
    11    7    8       2
    12    8    9       1
    13    9   10       2
    14    9   20       1
    15   10   11       1
    16   11   12       2
    17   12   13       1
    18   13   14       1
    19   13   21       1
    20   14   15       1
    21   15   16       1
    22    2   22       1
    23    2   23       1
    24    3   24       1
    25    3   25       1
    26    4   26       1
    27    4   27       1
    28    6   28       1
    29    7   29       1
    30    8   30       1
    31   10   31       1
    32   11   32       1
    33   12   33       1
    34   13   34       1
    35   14   35       1
    36   14   36       1
    37   15   37       1
    38   15   38       1
    39   16   39       1
    40   17   40       1
    41   17   41       1
    42   17   42       1
    43   18   43       1
    44   18   44       1
    45   18   45       1
    46   19   46       1
    47   19   47       1
    48   20   48       1
    49   20   49       1
    50   20   50       1
    51   21   51       1
    52   21   52       1
    53   21   53       1
@<TRIPOS>SUBSTRUCTURE
     1 RTL951      1 GROUP             4 B     RTL     0 **** RTL B 951
