@<TRIPOS>MOLECULE
4uco_IWH_1_ligand
   35    36     1     0     0
SMALL
NO_CHARGES


@<TRIPOS>ATOM
     1 C1         139.6820    76.8410    29.1490 C.3          1 IWH1319   0.0000
     2 N1         134.2140    77.1910    25.5340 N.pl3        1 IWH1319   0.0000
     3 O1         133.8640    79.4340    25.7760 O.2          1 IWH1319   0.0000
     4 C2         138.2730    76.9430    28.6110 C.ar         1 IWH1319   0.0000
     5 N2         134.5810    73.7600    23.2080 N.am         1 IWH1319   0.0000
     6 O2         134.6240    74.9860    21.3410 O.2          1 IWH1319   0.0000
     7 C3         138.0300    77.4060    27.3310 C.ar         1 IWH1319   0.0000
     8 C4         136.7460    77.4740    26.8260 C.ar         1 IWH1319   0.0000
     9 C5         135.6550    77.0770    27.5930 C.ar         1 IWH1319   0.0000
    10 C6         135.8700    76.6350    28.9100 C.ar         1 IWH1319   0.0000
    11 C7         137.1810    76.5680    29.3830 C.ar         1 IWH1319   0.0000
    12 C8         134.7350    76.2510    29.8210 C.3          1 IWH1319   0.0000
    13 C9         134.2650    77.0270    27.0040 C.3          1 IWH1319   0.0000
    14 C10        134.3970    76.0980    24.7190 C.2          1 IWH1319   0.0000
    15 C11        134.3760    76.1950    23.3610 C.2          1 IWH1319   0.0000
    16 C12        134.1470    77.4860    22.8000 C.2          1 IWH1319   0.0000
    17 C13        133.9550    78.5650    23.5840 C.2          1 IWH1319   0.0000
    18 C14        133.9870    78.4740    25.0160 C.2          1 IWH1319   0.0000
    19 C15        134.5300    74.9320    22.5790 C.2          1 IWH1319   0.0000
    20 H1         139.6569    76.4883    30.0844 H            1 IWH1319   0.0000
    21 H2         140.2146    76.2208    28.5731 H            1 IWH1319   0.0000
    22 H3         140.1065    77.7464    29.1454 H            1 IWH1319   0.0000
    23 H4         134.5047    73.7236    24.2044 H            1 IWH1319   0.0000
    24 H5         134.6956    72.9159    22.6841 H            1 IWH1319   0.0000
    25 H6         138.7979    77.6970    26.7603 H            1 IWH1319   0.0000
    26 H7         136.5986    77.8130    25.8968 H            1 IWH1319   0.0000
    27 H8         137.3404    76.2374    30.3132 H            1 IWH1319   0.0000
    28 H9         135.1005    75.9670    30.7074 H            1 IWH1319   0.0000
    29 H10        134.1282    77.0359    29.9466 H            1 IWH1319   0.0000
    30 H11        134.2222    75.4950    29.4142 H            1 IWH1319   0.0000
    31 H12        133.8604    76.1418    27.2336 H            1 IWH1319   0.0000
    32 H13        133.7238    77.7585    27.4187 H            1 IWH1319   0.0000
    33 H14        134.5505    75.2029    25.1376 H            1 IWH1319   0.0000
    34 H15        134.1286    77.5925    21.8059 H            1 IWH1319   0.0000
    35 H16        133.7857    79.4530    23.1566 H            1 IWH1319   0.0000
@<TRIPOS>BOND
     1    1    4       1
     2    2   13       1
     3    2   14       1
     4    2   18       1
     5    3   18       2
     6    4    7      ar
     7    4   11      ar
     8    5   19      am
     9    6   19       2
    10    7    8      ar
    11    8    9      ar
    12    9   10      ar
    13    9   13       1
    14   10   11      ar
    15   10   12       1
    16   14   15       2
    17   15   16       1
    18   15   19       1
    19   16   17       2
    20   17   18       1
    21    1   20       1
    22    1   21       1
    23    1   22       1
    24    5   23       1
    25    5   24       1
    26    7   25       1
    27    8   26       1
    28   11   27       1
    29   12   28       1
    30   12   29       1
    31   12   30       1
    32   13   31       1
    33   13   32       1
    34   14   33       1
    35   16   34       1
    36   17   35       1
@<TRIPOS>SUBSTRUCTURE
     1 IWH1319     1 GROUP             4 A     IWH     0 **** IWH A1319
