@<TRIPOS>MOLECULE
2z7q_ACP_1_ligand
   45    47     1     0     0
SMALL
NO_CHARGES


@<TRIPOS>ATOM
     1 PG           4.2350    -9.1850    20.7780 P.3          1 ACP500   0.0000
     2 O1G          4.6980    -9.4810    19.4020 O.co2        1 ACP500   0.0000
     3 O2G          4.1930    -7.6980    21.0500 O.co2        1 ACP500  -1.0000
     4 O3G          4.9920    -9.9290    21.8590 O.co2        1 ACP500  -1.0000
     5 PB           1.3850    -8.7730    21.7120 P.3          1 ACP500   0.0000
     6 O1B         -0.0290    -9.3300    21.5840 O.co2        1 ACP500   0.0000
     7 O2B          1.2200    -7.2520    21.6140 O.co2        1 ACP500  -1.0000
     8 C3B          2.6040    -9.6880    20.7930 C.3          1 ACP500   0.0000
     9 PA           2.3510    -8.1310    24.1520 P.3          1 ACP500   0.0000
    10 O1A          3.2950    -7.0190    23.6810 O.co2        1 ACP500   0.0000
    11 O2A          3.1210    -9.0110    25.1080 O.co2        1 ACP500  -1.0000
    12 O3A          2.1020    -9.1700    22.9650 O.3          1 ACP500   0.0000
    13 O5'          1.1410    -7.5020    24.7560 O.3          1 ACP500   0.0000
    14 C5'          0.1960    -8.4080    25.2540 C.3          1 ACP500   0.0000
    15 C4'         -1.0660    -7.8000    25.7400 C.3          1 ACP500   0.0000
    16 O4'         -0.8390    -6.4530    26.1780 O.3          1 ACP500   0.0000
    17 C3'         -1.7970    -7.5450    24.3970 C.3          1 ACP500   0.0000
    18 O3'         -3.1900    -7.7440    24.5420 O.3          1 ACP500   0.0000
    19 C2'         -1.4920    -6.0920    24.0230 C.3          1 ACP500   0.0000
    20 O2'         -2.5290    -5.6620    23.1940 O.3          1 ACP500   0.0000
    21 C1'         -1.4220    -5.4490    25.3570 C.3          1 ACP500   0.0000
    22 N9          -0.5840    -4.2410    25.5730 N.pl3        1 ACP500   0.0000
    23 C8           0.7670    -4.0550    25.4750 C.2          1 ACP500   0.0000
    24 N7           1.0900    -2.7640    25.7570 N.2          1 ACP500   0.0000
    25 C5          -0.0550    -2.1240    26.0510 C.ar         1 ACP500   0.0000
    26 C6          -0.4700    -0.7570    26.4220 C.ar         1 ACP500   0.0000
    27 N6           0.4810     0.2140    26.5550 N.pl3        1 ACP500   0.0000
    28 N1          -1.8090    -0.4910    26.6430 N.ar         1 ACP500   0.0000
    29 C2          -2.7740    -1.4550    26.5140 C.ar         1 ACP500   0.0000
    30 N3          -2.4420    -2.7380    26.1590 N.ar         1 ACP500   0.0000
    31 C4          -1.1490    -3.0960    25.9300 C.ar         1 ACP500   0.0000
    32 H3B1         2.5950   -10.6203    21.1545 H            1 ACP500   0.0000
    33 H3B2         2.2981    -9.6967    19.8410 H            1 ACP500   0.0000
    34 H5'1         0.6139    -8.9038    26.0153 H            1 ACP500   0.0000
    35 H5'2        -0.0318    -9.0508    24.5226 H            1 ACP500   0.0000
    36 H4'         -1.5757    -8.3659    26.3880 H            1 ACP500   0.0000
    37 H3'         -1.4382    -8.1587    23.6937 H            1 ACP500   0.0000
    38 H7          -3.4625    -7.5236    25.4786 H            1 ACP500   0.0000
    39 H2'         -0.6124    -6.0255    23.5520 H            1 ACP500   0.0000
    40 H9          -3.3707    -6.1451    23.4352 H            1 ACP500   0.0000
    41 H1'         -2.3505    -5.2634    25.6786 H            1 ACP500   0.0000
    42 H11          1.4248    -4.7674    25.2305 H            1 ACP500   0.0000
    43 H12          0.2139     1.1444    26.8059 H            1 ACP500   0.0000
    44 H13          1.4445    -0.0054    26.4015 H            1 ACP500   0.0000
    45 H14         -3.7318    -1.2207    26.6806 H            1 ACP500   0.0000
@<TRIPOS>BOND
     1    1    2      ar
     2    1    3      ar
     3    1    4      ar
     4    1    8       1
     5    5    6      ar
     6    5    7      ar
     7    5    8       1
     8    5   12       1
     9    9   10      ar
    10    9   11      ar
    11    9   12       1
    12    9   13       1
    13   13   14       1
    14   14   15       1
    15   15   16       1
    16   15   17       1
    17   16   21       1
    18   17   18       1
    19   17   19       1
    20   19   20       1
    21   19   21       1
    22   21   22       1
    23   22   23       1
    24   22   31       1
    25   23   24       2
    26   24   25       1
    27   25   26      ar
    28   25   31      ar
    29   26   27       1
    30   26   28      ar
    31   28   29      ar
    32   29   30      ar
    33   30   31      ar
    34   29   45       1
    35   27   44       1
    36   27   43       1
    37    8   32       1
    38    8   33       1
    39   23   42       1
    40   14   34       1
    41   14   35       1
    42   15   36       1
    43   17   37       1
    44   18   38       1
    45   19   39       1
    46   20   40       1
    47   21   41       1
@<TRIPOS>SUBSTRUCTURE
     1 ACP500      1 GROUP             4 A     ACP     0 **** ACP A 500
