@<TRIPOS>MOLECULE
3lzw_FAD_1_ligand
   84    89     1     0     0
SMALL
NO_CHARGES


@<TRIPOS>ATOM
     1 PA          -7.5500   -12.9730    13.4740 P.3          1 FAD1000   0.0000
     2 O1A         -6.8430   -12.8200    14.7710 O.co2        1 FAD1000   0.0000
     3 O2A         -7.2920   -14.3290    12.7140 O.co2        1 FAD1000  -1.0000
     4 O5B         -9.1090   -12.7600    13.7240 O.3          1 FAD1000   0.0000
     5 C5B        -10.0320   -12.9420    12.6640 C.3          1 FAD1000   0.0000
     6 C4B        -11.4190   -13.2250    13.2330 C.3          1 FAD1000   0.0000
     7 O4B        -12.3110   -13.2730    12.1080 O.3          1 FAD1000   0.0000
     8 C3B        -11.5190   -14.5900    13.9440 C.3          1 FAD1000   0.0000
     9 O3B        -12.0600   -14.3360    15.2380 O.3          1 FAD1000   0.0000
    10 C2B        -12.4780   -15.4000    13.0490 C.3          1 FAD1000   0.0000
    11 O2B        -13.3280   -16.2520    13.8230 O.3          1 FAD1000   0.0000
    12 C1B        -13.3020   -14.3000    12.3860 C.3          1 FAD1000   0.0000
    13 N9A        -13.9010   -14.6460    11.0630 N.pl3        1 FAD1000   0.0000
    14 C8A        -13.2350   -15.0460     9.9850 C.2          1 FAD1000   0.0000
    15 N7A        -14.0660   -15.2560     8.9590 N.2          1 FAD1000   0.0000
    16 C5A        -15.2900   -14.9770     9.3990 C.ar         1 FAD1000   0.0000
    17 C6A        -16.5340   -14.9990     8.7950 C.ar         1 FAD1000   0.0000
    18 N6A        -16.6470   -15.3840     7.5210 N.pl3        1 FAD1000   0.0000
    19 N1A        -17.6100   -14.6330     9.5180 N.ar         1 FAD1000   0.0000
    20 C2A        -17.4880   -14.2570    10.7950 C.ar         1 FAD1000   0.0000
    21 N3A        -16.3070   -14.2340    11.4010 N.ar         1 FAD1000   0.0000
    22 C4A        -15.1920   -14.5780    10.7270 C.ar         1 FAD1000   0.0000
    23 N1           1.6830   -11.2790    15.5510 N.2          1 FAD1000   0.0000
    24 C2           2.4740   -10.2740    16.0470 C.2          1 FAD1000   0.0000
    25 O2           2.3870    -9.1550    15.5450 O.2          1 FAD1000   0.0000
    26 N3           3.3470   -10.5440    17.1010 N.pl3        1 FAD1000   0.0000
    27 C4           3.4530   -11.8180    17.6700 C.2          1 FAD1000   0.0000
    28 O4           4.2510   -12.0200    18.6000 O.2          1 FAD1000   0.0000
    29 C4X          2.6510   -12.8310    17.1510 C.2          1 FAD1000   0.0000
    30 N5           2.6910   -14.1170    17.6820 N.2          1 FAD1000   0.0000
    31 C5X          1.8040   -15.1030    17.2440 C.ar         1 FAD1000   0.0000
    32 C6           1.7940   -16.3590    17.8620 C.ar         1 FAD1000   0.0000
    33 C7           0.9090   -17.3390    17.4210 C.ar         1 FAD1000   0.0000
    34 C7M          0.8960   -18.7160    18.1070 C.3          1 FAD1000   0.0000
    35 C8           0.0400   -17.0670    16.3620 C.ar         1 FAD1000   0.0000
    36 C8M         -0.9460   -18.1210    15.8610 C.3          1 FAD1000   0.0000
    37 C9           0.0500   -15.8170    15.7450 C.ar         1 FAD1000   0.0000
    38 C9A          0.9340   -14.8320    16.1840 C.ar         1 FAD1000   0.0000
    39 N10          0.9540   -13.5680    15.5850 N.pl3        1 FAD1000   0.0000
    40 C10          1.7740   -12.5600    16.0950 C.2          1 FAD1000   0.0000
    41 C1'          0.0790   -13.2620    14.4260 C.3          1 FAD1000   0.0000
    42 C2'         -1.1690   -12.5290    14.9000 C.3          1 FAD1000   0.0000
    43 O2'         -1.9300   -13.3770    15.7920 O.3          1 FAD1000   0.0000
    44 C3'         -2.0200   -12.0780    13.7070 C.3          1 FAD1000   0.0000
    45 O3'         -1.2640   -11.1470    12.9190 O.3          1 FAD1000   0.0000
    46 C4'         -3.3220   -11.4250    14.1930 C.3          1 FAD1000   0.0000
    47 O4'         -4.1160   -12.3550    14.9570 O.3          1 FAD1000   0.0000
    48 C5'         -4.1670   -10.9480    13.0260 C.3          1 FAD1000   0.0000
    49 O5'         -5.3470   -10.3600    13.5430 O.3          1 FAD1000   0.0000
    50 P           -6.6880   -10.3170    12.6750 P.3          1 FAD1000   0.0000
    51 O1P         -7.6750    -9.5220    13.4310 O.co2        1 FAD1000   0.0000
    52 O2P         -6.3520    -9.7940    11.2350 O.co2        1 FAD1000  -1.0000
    53 O3P         -7.0920   -11.8690    12.3760 O.3          1 FAD1000   0.0000
    54 H5B1        -9.7409   -13.7137    12.0985 H            1 FAD1000   0.0000
    55 H5B2       -10.0646   -12.1131    12.1056 H            1 FAD1000   0.0000
    56 H4B        -11.6910   -12.4919    13.8564 H            1 FAD1000   0.0000
    57 H3B        -10.6238   -15.0313    14.0068 H            1 FAD1000   0.0000
    58 H5         -13.0577   -14.3908    15.1988 H            1 FAD1000   0.0000
    59 H2B        -11.9706   -15.9264    12.3667 H            1 FAD1000   0.0000
    60 H7         -14.1648   -15.7595    14.0624 H            1 FAD1000   0.0000
    61 H1B        -14.0018   -13.9561    13.0121 H            1 FAD1000   0.0000
    62 H8A        -12.2439   -15.1731     9.9463 H            1 FAD1000   0.0000
    63 H6A1       -17.5451   -15.4009     7.0816 H            1 FAD1000   0.0000
    64 H6A2       -15.8335   -15.6553     7.0066 H            1 FAD1000   0.0000
    65 H2A        -18.3046   -13.9870    11.3052 H            1 FAD1000   0.0000
    66 H13          3.9149    -9.8039    17.4612 H            1 FAD1000   0.0000
    67 H14          2.4202   -16.5516    18.6175 H            1 FAD1000   0.0000
    68 H7M1         0.2083   -19.2981    17.6731 H            1 FAD1000   0.0000
    69 H7M2         1.7967   -19.1412    18.0181 H            1 FAD1000   0.0000
    70 H7M3         0.6745   -18.6037    19.0757 H            1 FAD1000   0.0000
    71 H8M1        -1.4795   -17.7450    15.1034 H            1 FAD1000   0.0000
    72 H8M2        -0.4425   -18.9259    15.5469 H            1 FAD1000   0.0000
    73 H8M3        -1.5614   -18.3820    16.6048 H            1 FAD1000   0.0000
    74 H21         -0.5759   -15.6270    14.9886 H            1 FAD1000   0.0000
    75 H1'1        -0.1875   -14.1149    13.9771 H            1 FAD1000   0.0000
    76 H1'2         0.5764   -12.6854    13.7778 H            1 FAD1000   0.0000
    77 H2'         -0.8826   -11.7161    15.4071 H            1 FAD1000   0.0000
    78 H25         -2.9015   -13.1521    15.7176 H            1 FAD1000   0.0000
    79 H3'         -2.2439   -12.8748    13.1457 H            1 FAD1000   0.0000
    80 H27         -1.5447   -11.2155    11.9617 H            1 FAD1000   0.0000
    81 H4'         -3.0954   -10.6410    14.7710 H            1 FAD1000   0.0000
    82 H29         -5.0037   -12.4783    14.5134 H            1 FAD1000   0.0000
    83 H5'1        -4.4039   -11.7235    12.4408 H            1 FAD1000   0.0000
    84 H5'2        -3.6575   -10.2720    12.4936 H            1 FAD1000   0.0000
@<TRIPOS>BOND
     1    1    2      ar
     2    1    3      ar
     3    1    4       1
     4    1   53       1
     5    4    5       1
     6    5    6       1
     7    6    7       1
     8    6    8       1
     9    7   12       1
    10    8    9       1
    11    8   10       1
    12   10   11       1
    13   10   12       1
    14   12   13       1
    15   13   14       1
    16   13   22       1
    17   14   15       2
    18   15   16       1
    19   16   17      ar
    20   16   22      ar
    21   17   18       1
    22   17   19      ar
    23   19   20      ar
    24   20   21      ar
    25   21   22      ar
    26   23   24       1
    27   23   40       2
    28   24   25       2
    29   24   26       1
    30   26   27       1
    31   27   28       2
    32   27   29       1
    33   29   30       2
    34   29   40       1
    35   30   31       1
    36   31   32      ar
    37   31   38      ar
    38   32   33      ar
    39   33   34       1
    40   33   35      ar
    41   35   36       1
    42   35   37      ar
    43   37   38      ar
    44   38   39       1
    45   39   40       1
    46   39   41       1
    47   41   42       1
    48   42   43       1
    49   42   44       1
    50   44   45       1
    51   44   46       1
    52   46   47       1
    53   46   48       1
    54   48   49       1
    55   49   50       1
    56   50   51      ar
    57   50   52      ar
    58   50   53       1
    59   48   84       1
    60    5   54       1
    61    5   55       1
    62    6   56       1
    63    8   57       1
    64    9   58       1
    65   10   59       1
    66   11   60       1
    67   12   61       1
    68   14   62       1
    69   18   63       1
    70   18   64       1
    71   20   65       1
    72   26   66       1
    73   32   67       1
    74   34   68       1
    75   34   69       1
    76   34   70       1
    77   36   71       1
    78   36   72       1
    79   36   73       1
    80   37   74       1
    81   41   75       1
    82   41   76       1
    83   42   77       1
    84   43   78       1
    85   44   79       1
    86   45   80       1
    87   46   81       1
    88   47   82       1
    89   48   83       1
@<TRIPOS>SUBSTRUCTURE
     1 FAD1000     1 GROUP             4 A     FAD     0 **** FAD A1000
