@<TRIPOS>MOLECULE
3q5d_GDP_1_ligand
   40    42     1     0     0
SMALL
NO_CHARGES


@<TRIPOS>ATOM
     1 PB           5.5080    36.7040    37.2870 P.3          1 GDP3850   0.0000
     2 O1B          6.8470    36.9480    37.9290 O.co2        1 GDP3850   0.0000
     3 O2B          4.3910    36.8940    38.2890 O.co2        1 GDP3850  -1.0000
     4 O3B          5.3500    37.7220    36.1750 O.co2        1 GDP3850  -1.0000
     5 O3A          5.4800    35.1900    36.7530 O.3          1 GDP3850   0.0000
     6 PA           4.2130    34.1940    36.8640 P.3          1 GDP3850   0.0000
     7 O1A          2.9730    34.7100    36.1650 O.co2        1 GDP3850   0.0000
     8 O2A          3.9060    33.8400    38.2990 O.co2        1 GDP3850  -1.0000
     9 O5'          4.7510    32.8710    36.1270 O.3          1 GDP3850   0.0000
    10 C5'          5.4680    32.9230    34.8970 C.3          1 GDP3850   0.0000
    11 C4'          5.4970    31.5170    34.3100 C.3          1 GDP3850   0.0000
    12 O4'          6.4390    30.6910    35.0140 O.3          1 GDP3850   0.0000
    13 C3'          4.1580    30.8270    34.4620 C.3          1 GDP3850   0.0000
    14 O3'          4.0530    29.9210    33.3660 O.3          1 GDP3850   0.0000
    15 C2'          4.3070    30.0260    35.7360 C.3          1 GDP3850   0.0000
    16 O2'          3.4310    28.8980    35.7700 O.3          1 GDP3850   0.0000
    17 C1'          5.7700    29.6160    35.6880 C.3          1 GDP3850   0.0000
    18 N9           6.3480    29.4970    37.0470 N.pl3        1 GDP3850   0.0000
    19 C8           5.8010    29.8770    38.2090 C.2          1 GDP3850   0.0000
    20 N7           6.6490    29.6280    39.2370 N.2          1 GDP3850   0.0000
    21 C5           7.7780    29.1010    38.7390 C.2          1 GDP3850   0.0000
    22 C6           9.0810    28.6090    39.2570 C.2          1 GDP3850   0.0000
    23 O6           9.3260    28.6290    40.4790 O.2          1 GDP3850   0.0000
    24 N1           9.9800    28.1420    38.3690 N.pl3        1 GDP3850   0.0000
    25 C2           9.7040    28.1100    37.0360 C.2          1 GDP3850   0.0000
    26 N2          10.5890    27.6370    36.1360 N.pl3        1 GDP3850   0.0000
    27 N3           8.5390    28.5280    36.5190 N.2          1 GDP3850   0.0000
    28 C4           7.5600    29.0240    37.2940 C.2          1 GDP3850   0.0000
    29 H5'1         6.4015    33.2416    35.0614 H            1 GDP3850   0.0000
    30 H5'2         5.0099    33.5462    34.2631 H            1 GDP3850   0.0000
    31 H4'          5.7452    31.5611    33.3423 H            1 GDP3850   0.0000
    32 H3'          3.3954    31.4726    34.5011 H            1 GDP3850   0.0000
    33 H5           4.4348    29.0348    33.6283 H            1 GDP3850   0.0000
    34 H2'          4.1417    30.6116    36.5296 H            1 GDP3850   0.0000
    35 H7           3.8911    28.1064    35.3680 H            1 GDP3850   0.0000
    36 H1'          5.8798    28.7604    35.1822 H            1 GDP3850   0.0000
    37 H9           4.8940    30.2870    38.3049 H            1 GDP3850   0.0000
    38 H10         10.8663    27.8128    38.6948 H            1 GDP3850   0.0000
    39 H11         10.3562    27.6269    35.1635 H            1 GDP3850   0.0000
    40 H12         11.4784    27.2962    36.4408 H            1 GDP3850   0.0000
@<TRIPOS>BOND
     1    1    2      ar
     2    1    3      ar
     3    1    4      ar
     4    1    5       1
     5    5    6       1
     6    6    7      ar
     7    6    8      ar
     8    6    9       1
     9    9   10       1
    10   10   11       1
    11   11   12       1
    12   11   13       1
    13   12   17       1
    14   13   14       1
    15   13   15       1
    16   15   16       1
    17   15   17       1
    18   17   18       1
    19   18   19       1
    20   18   28       1
    21   19   20       2
    22   20   21       1
    23   21   22       1
    24   21   28       2
    25   22   23       2
    26   22   24       1
    27   24   25       1
    28   25   26       1
    29   25   27       2
    30   27   28       1
    31   26   40       1
    32   26   39       1
    33   24   38       1
    34   10   29       1
    35   10   30       1
    36   11   31       1
    37   13   32       1
    38   14   33       1
    39   15   34       1
    40   16   35       1
    41   17   36       1
    42   19   37       1
@<TRIPOS>SUBSTRUCTURE
     1 GDP3850     1 GROUP             4 A     GDP     0 **** GDP A3850
