@<TRIPOS>MOLECULE
4xli_1N1_1_ligand
   60    63     1     0     0
SMALL
NO_CHARGES


@<TRIPOS>ATOM
     1 C1          31.2900    24.1120    -2.3480 C.2          1 1N1601   0.0000
     2 C2          31.4430    22.7400    -1.9990 C.2          1 1N1601   0.0000
     3 C3          32.3510    22.0170    -1.0300 C.2          1 1N1601   0.0000
     4 N6          23.7970    21.0210    -9.6040 N.4          1 1N1601   1.0000
     5 C7          35.8010    21.2030     2.4460 C.ar         1 1N1601   0.0000
     6 C8          36.2220    21.3960     1.1310 C.ar         1 1N1601   0.0000
     7 C9          35.3890    22.0070     0.1890 C.ar         1 1N1601   0.0000
     8 C10         35.9280    22.2630    -1.1530 C.3          1 1N1601   0.0000
     9 C11         28.3320    22.0500    -5.1290 C.ar         1 1N1601   0.0000
    10 C12         27.3530    22.2000    -6.1110 C.ar         1 1N1601   0.0000
    11 C13         26.6940    21.0670    -6.5770 C.ar         1 1N1601   0.0000
    12 C14         28.0160    19.7300    -5.1540 C.ar         1 1N1601   0.0000
    13 C15         28.3740    18.3830    -4.6700 C.3          1 1N1601   0.0000
    14 C16         24.5650    20.1440    -7.4170 C.3          1 1N1601   0.0000
    15 C19         25.0540    22.4150    -7.8380 C.3          1 1N1601   0.0000
    16 C20         24.1170    20.7160   -11.0100 C.3          1 1N1601   0.0000
    17 C21         23.5750    21.7890   -11.9370 C.3          1 1N1601   0.0000
    18 N           28.8940    23.1650    -4.6690 N.pl3        1 1N1601   0.0000
    19 C           29.8230    23.1730    -3.6990 C.2          1 1N1601   0.0000
    20 N1          30.3340    24.3410    -3.3090 N.2          1 1N1601   0.0000
    21 S           30.3820    21.7530    -2.9150 S.3          1 1N1601   0.0000
    22 N2          33.0760    22.8550    -0.2770 N.am         1 1N1601   0.0000
    23 C4          34.0180    22.4750     0.5970 C.ar         1 1N1601   0.0000
    24 C5          33.6100    22.1570     1.9850 C.ar         1 1N1601   0.0000
    25 C6          34.5060    21.5360     2.8570 C.ar         1 1N1601   0.0000
    26 CL          31.9770    22.6340     2.5180 Cl           1 1N1601   0.0000
    27 O           32.4160    20.8140    -1.0390 O.2          1 1N1601   0.0000
    28 N3          27.0620    19.8490    -6.1090 N.ar         1 1N1601   0.0000
    29 N4          28.6700    20.8180    -4.6480 N.ar         1 1N1601   0.0000
    30 N5          25.6790    21.1190    -7.5630 N.pl3        1 1N1601   0.0000
    31 C17         24.2630    19.8180    -8.8560 C.3          1 1N1601   0.0000
    32 C18         24.3820    22.3380    -9.2210 C.3          1 1N1601   0.0000
    33 O1          24.7250    22.3200   -12.6260 O.3          1 1N1601   0.0000
    34 H1          31.8297    24.8435    -1.9313 H            1 1N1601   0.0000
    35 H2          36.4401    20.8173     3.1114 H            1 1N1601   0.0000
    36 H3          37.1346    21.0925     0.8571 H            1 1N1601   0.0000
    37 H4          35.2268    22.7005    -1.7159 H            1 1N1601   0.0000
    38 H5          36.7233    22.8652    -1.0835 H            1 1N1601   0.0000
    39 H6          36.2008    21.3976    -1.5733 H            1 1N1601   0.0000
    40 H7          27.1291    23.1048    -6.4732 H            1 1N1601   0.0000
    41 H8          29.0866    18.4579    -3.9724 H            1 1N1601   0.0000
    42 H9          27.5662    17.9449    -4.2756 H            1 1N1601   0.0000
    43 H10         28.7118    17.8332    -5.4339 H            1 1N1601   0.0000
    44 H11         23.7756    20.5563    -6.9622 H            1 1N1601   0.0000
    45 H12         24.8544    19.3314    -6.9111 H            1 1N1601   0.0000
    46 H13         25.7496    23.1334    -7.8387 H            1 1N1601   0.0000
    47 H14         24.3681    22.6158    -7.1386 H            1 1N1601   0.0000
    48 H15         23.7094    19.8362   -11.2546 H            1 1N1601   0.0000
    49 H16         25.1101    20.6641   -11.1154 H            1 1N1601   0.0000
    50 H17         23.1200    22.5077   -11.4113 H            1 1N1601   0.0000
    51 H18         22.9287    21.3933   -12.5894 H            1 1N1601   0.0000
    52 H19         28.6111    24.0388    -5.0644 H            1 1N1601   0.0000
    53 H20         32.9016    23.8349    -0.3742 H            1 1N1601   0.0000
    54 H21         34.2173    21.3257     3.7910 H            1 1N1601   0.0000
    55 H22         25.0924    19.4667    -9.2903 H            1 1N1601   0.0000
    56 H23         23.5485    19.1191    -8.8876 H            1 1N1601   0.0000
    57 H24         23.6456    23.0143    -9.2391 H            1 1N1601   0.0000
    58 H25         25.0699    22.5758    -9.9067 H            1 1N1601   0.0000
    59 H26         24.4329    23.0380   -13.2578 H            1 1N1601   0.0000
    60 H27         22.8029    21.0810    -9.5141 H            1 1N1601   0.0000
@<TRIPOS>BOND
     1    1    2       2
     2    1   20       1
     3    2    3       1
     4    2   21       1
     5    3   22      am
     6    3   27       2
     7    4   16       1
     8    4   31       1
     9    4   32       1
    10    5    6      ar
    11    5   25      ar
    12    6    7      ar
    13    7    8       1
    14    7   23      ar
    15    9   10      ar
    16    9   18       1
    17    9   29      ar
    18   10   11      ar
    19   11   28      ar
    20   11   30       1
    21   12   13       1
    22   12   28      ar
    23   12   29      ar
    24   14   30       1
    25   14   31       1
    26   15   30       1
    27   15   32       1
    28   16   17       1
    29   17   33       1
    30   18   19       1
    31   19   20       2
    32   19   21       1
    33   22   23       1
    34   23   24      ar
    35   24   25      ar
    36   24   26       1
    37    1   34       1
    38    5   35       1
    39    6   36       1
    40    8   37       1
    41    8   38       1
    42    8   39       1
    43   10   40       1
    44   13   41       1
    45   13   42       1
    46   13   43       1
    47   14   44       1
    48   14   45       1
    49   15   46       1
    50   15   47       1
    51   16   48       1
    52   16   49       1
    53   17   50       1
    54   17   51       1
    55   18   52       1
    56   22   53       1
    57   25   54       1
    58   31   55       1
    59   31   56       1
    60   32   57       1
    61   32   58       1
    62   33   59       1
    63    4   60       1
@<TRIPOS>SUBSTRUCTURE
     1 1N1601      1 GROUP             4 A     1N1     0 **** 1N1 A 601
