@<TRIPOS>MOLECULE
5j60_FAD_1_ligand
   84    89     1     0     0
SMALL
NO_CHARGES


@<TRIPOS>ATOM
     1 PA         -29.8920   -10.0800     1.1920 P.3          1 FAD401   0.0000
     2 O1A        -29.0180    -9.3990     2.2840 O.co2        1 FAD401   0.0000
     3 O2A        -29.9000   -11.5790     0.9650 O.co2        1 FAD401  -1.0000
     4 O5B        -31.3690    -9.6180     1.4680 O.3          1 FAD401   0.0000
     5 C5B        -32.4410   -10.0640     0.7180 C.3          1 FAD401   0.0000
     6 C4B        -33.8240    -9.7620     1.3380 C.3          1 FAD401   0.0000
     7 O4B        -34.8580   -10.0880     0.4290 O.3          1 FAD401   0.0000
     8 C3B        -34.0210   -10.7030     2.6030 C.3          1 FAD401   0.0000
     9 O3B        -34.4660    -9.9410     3.7120 O.3          1 FAD401   0.0000
    10 C2B        -35.0930   -11.7140     2.0920 C.3          1 FAD401   0.0000
    11 O2B        -35.9530   -12.0860     3.1290 O.3          1 FAD401   0.0000
    12 C1B        -35.8610   -10.8360     1.0630 C.3          1 FAD401   0.0000
    13 N9A        -36.5960   -11.5560     0.1050 N.pl3        1 FAD401   0.0000
    14 C8A        -36.1940   -12.6820    -0.6770 C.2          1 FAD401   0.0000
    15 N7A        -37.1400   -13.1270    -1.4980 N.2          1 FAD401   0.0000
    16 C5A        -38.2220   -12.2590    -1.2860 C.ar         1 FAD401   0.0000
    17 C6A        -39.5150   -12.1890    -1.8450 C.ar         1 FAD401   0.0000
    18 N6A        -39.9510   -13.0540    -2.7870 N.pl3        1 FAD401   0.0000
    19 N1A        -40.3590   -11.2090    -1.4260 N.ar         1 FAD401   0.0000
    20 C2A        -39.9190   -10.3590    -0.4710 C.ar         1 FAD401   0.0000
    21 N3A        -38.7350   -10.3170     0.1490 N.ar         1 FAD401   0.0000
    22 C4A        -37.8980   -11.2980    -0.3040 C.ar         1 FAD401   0.0000
    23 N1         -20.6500    -9.3900     3.1680 N.2          1 FAD401   0.0000
    24 C2         -19.7210    -8.4970     3.7360 C.2          1 FAD401   0.0000
    25 O2         -19.5490    -7.4100     3.3080 O.2          1 FAD401   0.0000
    26 N3         -18.9930    -8.9830     4.8610 N.pl3        1 FAD401   0.0000
    27 C4         -19.0720   -10.2610     5.4600 C.2          1 FAD401   0.0000
    28 O4         -18.4040   -10.5200     6.4140 O.2          1 FAD401   0.0000
    29 C4X        -20.0920   -11.1580     4.8240 C.2          1 FAD401   0.0000
    30 N5         -20.2800   -12.3720     5.2980 N.2          1 FAD401   0.0000
    31 C5X        -21.2240   -13.2150     4.6540 C.ar         1 FAD401   0.0000
    32 C6         -21.4560   -14.5420     5.1020 C.ar         1 FAD401   0.0000
    33 C7         -22.3780   -15.4220     4.5400 C.ar         1 FAD401   0.0000
    34 C7M        -22.5680   -16.8300     5.1090 C.3          1 FAD401   0.0000
    35 C8         -23.1210   -14.9550     3.3860 C.ar         1 FAD401   0.0000
    36 C8M        -24.1600   -15.8050     2.6420 C.3          1 FAD401   0.0000
    37 C9         -22.8600   -13.6620     2.9440 C.ar         1 FAD401   0.0000
    38 C9A        -21.9620   -12.7580     3.5160 C.ar         1 FAD401   0.0000
    39 N10        -21.7080   -11.4410     3.0560 N.pl3        1 FAD401   0.0000
    40 C10        -20.7910   -10.6050     3.6540 C.2          1 FAD401   0.0000
    41 C1'        -22.3880   -10.9110     1.8700 C.3          1 FAD401   0.0000
    42 C2'        -23.4510    -9.9730     2.1040 C.3          1 FAD401   0.0000
    43 O2'        -24.1170   -10.4600     3.2540 O.3          1 FAD401   0.0000
    44 C3'        -24.4040    -9.9610     0.8740 C.3          1 FAD401   0.0000
    45 O3'        -23.5940    -9.5890    -0.2210 O.3          1 FAD401   0.0000
    46 C4'        -25.4610    -8.8800     1.0410 C.3          1 FAD401   0.0000
    47 O4'        -26.1670    -9.2540     2.1980 O.3          1 FAD401   0.0000
    48 C5'        -26.4190    -8.8250    -0.1240 C.3          1 FAD401   0.0000
    49 O5'        -27.4400    -7.9020     0.1580 O.3          1 FAD401   0.0000
    50 P          -28.7700    -7.9730    -0.6390 P.3          1 FAD401   0.0000
    51 O1P        -29.6830    -6.8750    -0.0110 O.co2        1 FAD401   0.0000
    52 O2P        -28.6370    -7.9760    -2.1290 O.co2        1 FAD401  -1.0000
    53 O3P        -29.4940    -9.2570    -0.1000 O.3          1 FAD401   0.0000
    54 H5B1       -32.3564   -11.0545     0.6098 H            1 FAD401   0.0000
    55 H5B2       -32.3984    -9.6257    -0.1798 H            1 FAD401   0.0000
    56 H4B        -33.8844    -8.8003     1.6053 H            1 FAD401   0.0000
    57 H3B        -33.1686   -11.1774     2.8231 H            1 FAD401   0.0000
    58 H5         -35.3376    -9.5048     3.4885 H            1 FAD401   0.0000
    59 H2B        -34.6724   -12.5103     1.6572 H            1 FAD401   0.0000
    60 H7         -35.4614   -12.0494     3.9991 H            1 FAD401   0.0000
    61 H1B        -36.4750   -10.2163     1.5519 H            1 FAD401   0.0000
    62 H8A        -35.2862   -13.0965    -0.6128 H            1 FAD401   0.0000
    63 H6A1       -40.8764   -12.9670    -3.1558 H            1 FAD401   0.0000
    64 H6A2       -39.3482   -13.7812    -3.1154 H            1 FAD401   0.0000
    65 H2A        -40.5748    -9.6596    -0.1868 H            1 FAD401   0.0000
    66 H13        -18.3480    -8.3420     5.2771 H            1 FAD401   0.0000
    67 H14        -20.9176   -14.8692     5.8786 H            1 FAD401   0.0000
    68 H7M1       -23.2665   -17.3118     4.5800 H            1 FAD401   0.0000
    69 H7M2       -21.7042   -17.3309     5.0546 H            1 FAD401   0.0000
    70 H7M3       -22.8574   -16.7673     6.0641 H            1 FAD401   0.0000
    71 H8M1       -24.5411   -15.2769     1.8831 H            1 FAD401   0.0000
    72 H8M2       -23.7223   -16.6309     2.2867 H            1 FAD401   0.0000
    73 H8M3       -24.8936   -16.0611     3.2714 H            1 FAD401   0.0000
    74 H21        -23.3641   -13.3496     2.1388 H            1 FAD401   0.0000
    75 H1'1       -22.7722   -11.6862     1.3686 H            1 FAD401   0.0000
    76 H1'2       -21.7006   -10.4557     1.3041 H            1 FAD401   0.0000
    77 H2'        -23.0824    -9.0587     2.2720 H            1 FAD401   0.0000
    78 H25        -25.0830   -10.2047     3.2129 H            1 FAD401   0.0000
    79 H3'        -24.8214   -10.8581     0.7290 H            1 FAD401   0.0000
    80 H27        -23.9504   -10.0072    -1.0565 H            1 FAD401   0.0000
    81 H4'        -25.0266    -7.9891     1.1738 H            1 FAD401   0.0000
    82 H29        -27.1293    -9.4000     1.9687 H            1 FAD401   0.0000
    83 H5'1       -26.8181    -9.7300    -0.2714 H            1 FAD401   0.0000
    84 H5'2       -25.9281    -8.5391    -0.9470 H            1 FAD401   0.0000
@<TRIPOS>BOND
     1    1    2      ar
     2    1    3      ar
     3    1    4       1
     4    1   53       1
     5    4    5       1
     6    5    6       1
     7    6    7       1
     8    6    8       1
     9    7   12       1
    10    8    9       1
    11    8   10       1
    12   10   11       1
    13   10   12       1
    14   12   13       1
    15   13   14       1
    16   13   22       1
    17   14   15       2
    18   15   16       1
    19   16   17      ar
    20   16   22      ar
    21   17   18       1
    22   17   19      ar
    23   19   20      ar
    24   20   21      ar
    25   21   22      ar
    26   23   24       1
    27   23   40       2
    28   24   25       2
    29   24   26       1
    30   26   27       1
    31   27   28       2
    32   27   29       1
    33   29   30       2
    34   29   40       1
    35   30   31       1
    36   31   32      ar
    37   31   38      ar
    38   32   33      ar
    39   33   34       1
    40   33   35      ar
    41   35   36       1
    42   35   37      ar
    43   37   38      ar
    44   38   39       1
    45   39   40       1
    46   39   41       1
    47   41   42       1
    48   42   43       1
    49   42   44       1
    50   44   45       1
    51   44   46       1
    52   46   47       1
    53   46   48       1
    54   48   49       1
    55   49   50       1
    56   50   51      ar
    57   50   52      ar
    58   50   53       1
    59   48   84       1
    60    5   54       1
    61    5   55       1
    62    6   56       1
    63    8   57       1
    64    9   58       1
    65   10   59       1
    66   11   60       1
    67   12   61       1
    68   14   62       1
    69   18   63       1
    70   18   64       1
    71   20   65       1
    72   26   66       1
    73   32   67       1
    74   34   68       1
    75   34   69       1
    76   34   70       1
    77   36   71       1
    78   36   72       1
    79   36   73       1
    80   37   74       1
    81   41   75       1
    82   41   76       1
    83   42   77       1
    84   43   78       1
    85   44   79       1
    86   45   80       1
    87   46   81       1
    88   47   82       1
    89   48   83       1
@<TRIPOS>SUBSTRUCTURE
     1 FAD401      1 GROUP             4 A     FAD     0 **** FAD A 401
