@<TRIPOS>MOLECULE
3pcc_PHB_4_ligand
   15    15     1     0     0
SMALL
NO_CHARGES


@<TRIPOS>ATOM
     1 C1'         18.9830    24.3150    25.9670 C.2          1 PHB551   0.0000
     2 O1'         19.5180    23.7630    24.9690 O.co2        1 PHB551   0.0000
     3 O2'         17.7520    24.4900    25.9900 O.co2        1 PHB551  -1.0000
     4 C1          19.8990    24.7540    27.1420 C.ar         1 PHB551   0.0000
     5 C2          21.2770    24.5470    27.0890 C.ar         1 PHB551   0.0000
     6 C3          22.0990    24.9510    28.1410 C.ar         1 PHB551   0.0000
     7 C4          21.5300    25.5340    29.2750 C.ar         1 PHB551   0.0000
     8 C5          20.1630    25.7260    29.3540 C.ar         1 PHB551   0.0000
     9 C6          19.3450    25.3260    28.2990 C.ar         1 PHB551   0.0000
    10 O4          22.3620    25.9470    30.2750 O.3          1 PHB551   0.0000
    11 H1          21.6802    24.1042    26.2882 H            1 PHB551   0.0000
    12 H2          23.0892    24.8239    28.0834 H            1 PHB551   0.0000
    13 H3          19.7624    26.1507    30.1659 H            1 PHB551   0.0000
    14 H4          18.3547    25.4473    28.3663 H            1 PHB551   0.0000
    15 H5          21.9828    26.3680    31.0990 H            1 PHB551   0.0000
@<TRIPOS>BOND
     1    1    2      ar
     2    1    3      ar
     3    1    4       1
     4    4    5      ar
     5    4    9      ar
     6    5    6      ar
     7    6    7      ar
     8    7    8      ar
     9    7   10       1
    10    8    9      ar
    11   10   15       1
    12    5   11       1
    13    6   12       1
    14    8   13       1
    15    9   14       1
@<TRIPOS>SUBSTRUCTURE
     1 PHB551      1 GROUP             4 N     PHB     0 **** PHB N 551
