@<TRIPOS>MOLECULE
2plw_SAM_1_ligand
   50    52     1     0     0
SMALL
NO_CHARGES


@<TRIPOS>ATOM
     1 N            3.7230    35.7350     8.6990 N.4          1 SAM203   1.0000
     2 CA           4.5170    36.6340     9.6030 C.3          1 SAM203   0.0000
     3 C            3.7400    36.9870    10.8720 C.2          1 SAM203   0.0000
     4 O            2.5240    36.7920    10.8990 O.co2        1 SAM203   0.0000
     5 OXT          4.2850    37.4360    11.8880 O.co2        1 SAM203  -1.0000
     6 CB           4.9170    37.9010     8.8360 C.3          1 SAM203   0.0000
     7 CG           5.9700    37.5220     7.7960 C.3          1 SAM203   0.0000
     8 SD           6.8700    38.9080     7.0740 S.3          1 SAM203   1.0000
     9 CE           5.5360    39.5990     6.0830 C.3          1 SAM203   0.0000
    10 C5'          7.8930    38.0970     5.8170 C.3          1 SAM203   0.0000
    11 C4'          9.1280    37.4550     6.4500 C.3          1 SAM203   0.0000
    12 O4'          9.7560    36.6350     5.4610 O.3          1 SAM203   0.0000
    13 C3'         10.2100    38.4410     6.9560 C.3          1 SAM203   0.0000
    14 O3'         10.3130    38.4060     8.3630 O.3          1 SAM203   0.0000
    15 C2'         11.5040    37.9550     6.2860 C.3          1 SAM203   0.0000
    16 O2'         12.6780    37.9690     7.0910 O.3          1 SAM203   0.0000
    17 C1'         11.1250    36.5470     5.8640 C.3          1 SAM203   0.0000
    18 N9          11.9180    35.9660     4.7790 N.pl3        1 SAM203   0.0000
    19 C8          12.1560    36.4680     3.5160 C.2          1 SAM203   0.0000
    20 N7          12.9060    35.5770     2.8340 N.2          1 SAM203   0.0000
    21 C5          13.1390    34.5160     3.6500 C.ar         1 SAM203   0.0000
    22 C6          13.8330    33.3160     3.4860 C.ar         1 SAM203   0.0000
    23 N6          14.4440    33.0250     2.3460 N.pl3        1 SAM203   0.0000
    24 N1          13.8890    32.4080     4.5130 N.ar         1 SAM203   0.0000
    25 C2          13.2640    32.6550     5.7220 C.ar         1 SAM203   0.0000
    26 N3          12.5630    33.8350     5.8860 N.ar         1 SAM203   0.0000
    27 C4          12.5210    34.7480     4.8730 C.ar         1 SAM203   0.0000
    28 H1           3.5891    36.1845     7.8158 H            1 SAM203   0.0000
    29 H2           4.2177    34.8764     8.5645 H            1 SAM203   0.0000
    30 HA           5.3517    36.1523     9.8700 H            1 SAM203   0.0000
    31 HB1          5.2960    38.5746     9.4706 H            1 SAM203   0.0000
    32 HB2          4.1152    38.2870     8.3798 H            1 SAM203   0.0000
    33 HG1          5.5107    37.0318     7.0552 H            1 SAM203   0.0000
    34 HG2          6.6342    36.9167     8.2347 H            1 SAM203   0.0000
    35 HE1          5.8674    40.4061     5.5943 H            1 SAM203   0.0000
    36 HE2          5.2221    38.9157     5.4237 H            1 SAM203   0.0000
    37 HE3          4.7773    39.8591     6.6803 H            1 SAM203   0.0000
    38 H5'1         8.1856    38.7768     5.1445 H            1 SAM203   0.0000
    39 H5'2         7.3528    37.3891     5.3620 H            1 SAM203   0.0000
    40 H4'          8.8367    36.8764     7.2118 H            1 SAM203   0.0000
    41 H3'          9.9955    39.3692     6.6520 H            1 SAM203   0.0000
    42 H15         10.5603    37.4825     8.6563 H            1 SAM203   0.0000
    43 H2'         11.6685    38.5039     5.4665 H            1 SAM203   0.0000
    44 H17         12.5434    37.3788     7.8870 H            1 SAM203   0.0000
    45 H1'         11.1858    35.9467     6.6615 H            1 SAM203   0.0000
    46 H19         11.8278    37.3449     3.1649 H            1 SAM203   0.0000
    47 H20         14.9359    32.1597     2.2490 H            1 SAM203   0.0000
    48 H21         14.4130    33.6708     1.5831 H            1 SAM203   0.0000
    49 H22         13.3185    31.9896     6.4665 H            1 SAM203   0.0000
    50 H23          2.8335    35.5456     9.1148 H            1 SAM203   0.0000
@<TRIPOS>BOND
     1    1    2       1
     2    2    3       1
     3    2    6       1
     4    3    4      ar
     5    3    5      ar
     6    6    7       1
     7    7    8       1
     8    8    9       1
     9    8   10       1
    10   10   11       1
    11   11   12       1
    12   11   13       1
    13   12   17       1
    14   13   14       1
    15   13   15       1
    16   15   16       1
    17   15   17       1
    18   17   18       1
    19   18   19       1
    20   18   27       1
    21   19   20       2
    22   20   21       1
    23   21   22      ar
    24   21   27      ar
    25   22   23       1
    26   22   24      ar
    27   24   25      ar
    28   25   26      ar
    29   26   27      ar
    30    1   28       1
    31    1   29       1
    32    2   30       1
    33    1   50       1
    34    6   31       1
    35    6   32       1
    36    7   33       1
    37    7   34       1
    38    9   35       1
    39    9   36       1
    40    9   37       1
    41   10   38       1
    42   10   39       1
    43   11   40       1
    44   13   41       1
    45   14   42       1
    46   15   43       1
    47   16   44       1
    48   17   45       1
    49   19   46       1
    50   23   47       1
    51   23   48       1
    52   25   49       1
@<TRIPOS>SUBSTRUCTURE
     1 SAM203      1 GROUP             4 A     SAM     0 **** SAM A 203
