@<TRIPOS>MOLECULE
4cid_ANP_1_ligand
   44    46     1     0     0
SMALL
NO_CHARGES


@<TRIPOS>ATOM
     1 PG          11.2060   -52.1740    -1.9840 P.3          1 ANP1540   0.0000
     2 O1G         10.9400   -51.3780    -3.2380 O.co2        1 ANP1540   0.0000
     3 O2G         10.2470   -51.8450    -0.8690 O.co2        1 ANP1540  -1.0000
     4 O3G         12.6570   -52.2600    -1.5700 O.co2        1 ANP1540  -1.0000
     5 PB          11.8330   -54.5970    -3.6280 P.3          1 ANP1540   0.0000
     6 O1B         11.7910   -53.7480    -4.8760 O.co2        1 ANP1540   0.0000
     7 O2B         13.1570   -54.9440    -2.9830 O.co2        1 ANP1540  -1.0000
     8 N3B         10.8370   -53.8170    -2.4250 N.3          1 ANP1540   0.0000
     9 PA          11.4260   -57.3060    -3.2630 P.3          1 ANP1540   0.0000
    10 O1A         11.1430   -57.0650    -1.8090 O.co2        1 ANP1540   0.0000
    11 O2A         12.7880   -57.8290    -3.6530 O.co2        1 ANP1540  -1.0000
    12 O3A         11.1170   -55.9560    -4.0630 O.3          1 ANP1540   0.0000
    13 O5'         10.2590   -58.2380    -3.8550 O.3          1 ANP1540   0.0000
    14 C5'          8.9360   -57.7180    -3.9500 C.3          1 ANP1540   0.0000
    15 C4'          7.9160   -58.8470    -3.8720 C.3          1 ANP1540   0.0000
    16 O4'          7.7890   -59.4370    -5.1620 O.3          1 ANP1540   0.0000
    17 C3'          8.3100   -59.9560    -2.9020 C.3          1 ANP1540   0.0000
    18 O3'          7.1710   -60.4010    -2.1510 O.3          1 ANP1540   0.0000
    19 C2'          8.8530   -61.0650    -3.7770 C.3          1 ANP1540   0.0000
    20 O2'          8.4930   -62.3600    -3.2860 O.3          1 ANP1540   0.0000
    21 C1'          8.2290   -60.7950    -5.1430 C.3          1 ANP1540   0.0000
    22 N9           9.1790   -60.9870    -6.2610 N.pl3        1 ANP1540   0.0000
    23 C8          10.4470   -60.5340    -6.3170 C.2          1 ANP1540   0.0000
    24 N7          11.0290   -60.8800    -7.4890 N.2          1 ANP1540   0.0000
    25 C5          10.1160   -61.5590    -8.1940 C.ar         1 ANP1540   0.0000
    26 C6          10.0890   -62.2070    -9.5140 C.ar         1 ANP1540   0.0000
    27 N6          11.2060   -62.1500   -10.2700 N.pl3        1 ANP1540   0.0000
    28 N1           8.9460   -62.8230    -9.9120 N.ar         1 ANP1540   0.0000
    29 C2           7.8540   -62.8490    -9.1230 C.ar         1 ANP1540   0.0000
    30 N3           7.8190   -62.2750    -7.9010 N.ar         1 ANP1540   0.0000
    31 C4           8.8950   -61.6300    -7.3910 C.ar         1 ANP1540   0.0000
    32 H3B         10.8945   -54.3669    -1.5917 H            1 ANP1540   0.0000
    33 H5'1         8.8318   -57.2392    -4.8217 H            1 ANP1540   0.0000
    34 H5'2         8.7782   -57.0786    -3.1975 H            1 ANP1540   0.0000
    35 H4'          7.0317   -58.4703    -3.5962 H            1 ANP1540   0.0000
    36 H3'          9.0229   -59.6300    -2.2811 H            1 ANP1540   0.0000
    37 H6           7.0179   -61.3742    -2.3229 H            1 ANP1540   0.0000
    38 H2'          9.8483   -60.9910    -3.8388 H            1 ANP1540   0.0000
    39 H8           7.9573   -62.8422    -3.9792 H            1 ANP1540   0.0000
    40 H1'          7.4421   -61.3986    -5.2714 H            1 ANP1540   0.0000
    41 H10         10.8967   -60.0131    -5.5914 H            1 ANP1540   0.0000
    42 H11         11.2214   -62.5803   -11.1726 H            1 ANP1540   0.0000
    43 H12         12.0180   -61.6775    -9.9274 H            1 ANP1540   0.0000
    44 H13          7.0338   -63.3135    -9.4568 H            1 ANP1540   0.0000
@<TRIPOS>BOND
     1    1    2      ar
     2    1    3      ar
     3    1    4      ar
     4    1    8       1
     5    5    6      ar
     6    5    7      ar
     7    5    8       1
     8    5   12       1
     9    9   10      ar
    10    9   11      ar
    11    9   12       1
    12    9   13       1
    13   13   14       1
    14   14   15       1
    15   15   16       1
    16   15   17       1
    17   16   21       1
    18   17   18       1
    19   17   19       1
    20   19   20       1
    21   19   21       1
    22   21   22       1
    23   22   23       1
    24   22   31       1
    25   23   24       2
    26   24   25       1
    27   25   26      ar
    28   25   31      ar
    29   26   27       1
    30   26   28      ar
    31   28   29      ar
    32   29   30      ar
    33   30   31      ar
    34   29   44       1
    35   27   43       1
    36   27   42       1
    37    8   32       1
    38   23   41       1
    39   14   33       1
    40   14   34       1
    41   15   35       1
    42   17   36       1
    43   18   37       1
    44   19   38       1
    45   20   39       1
    46   21   40       1
@<TRIPOS>SUBSTRUCTURE
     1 ANP1540     1 GROUP             4 A     ANP     0 **** ANP A1540
