@<TRIPOS>MOLECULE
4xnh_ACO_1_ligand
   85    87     1     0     0
SMALL
NO_CHARGES


@<TRIPOS>ATOM
     1 N1A        -12.5060    21.3490    10.8750 N.ar         1 ACO201   0.0000
     2 C2A        -12.4980    21.3810    12.2200 C.ar         1 ACO201   0.0000
     3 N3A        -13.0760    20.4120    12.9580 N.ar         1 ACO201   0.0000
     4 C4A        -13.6920    19.3670    12.3570 C.ar         1 ACO201   0.0000
     5 C5A        -13.7450    19.2730    10.9050 C.ar         1 ACO201   0.0000
     6 C6A        -13.0960    20.3540    10.1570 C.ar         1 ACO201   0.0000
     7 N6A        -13.1100    20.3080     8.8000 N.pl3        1 ACO201   0.0000
     8 N7A        -14.4100    18.1480    10.5990 N.2          1 ACO201   0.0000
     9 C8A        -14.7770    17.5560    11.7680 C.2          1 ACO201   0.0000
    10 N9A        -14.3340    18.2960    12.7990 N.pl3        1 ACO201   0.0000
    11 C1B        -14.4870    18.0550    14.2360 C.3          1 ACO201   0.0000
    12 C2B        -15.5430    17.0160    14.5860 C.3          1 ACO201   0.0000
    13 O2B        -16.8760    17.5590    14.5720 O.3          1 ACO201   0.0000
    14 C3B        -15.0570    16.7040    15.9720 C.3          1 ACO201   0.0000
    15 O3B        -15.4610    17.7750    16.8140 O.3          1 ACO201   0.0000
    16 P3B        -16.1300    17.5300    18.2660 P.3          1 ACO201   0.0000
    17 O7A        -17.5870    17.2890    17.9140 O.co2        1 ACO201   0.0000
    18 O8A        -15.8080    18.8420    18.9850 O.co2        1 ACO201  -1.0000
    19 O9A        -15.4350    16.3050    18.8420 O.co2        1 ACO201  -1.0000
    20 C4B        -13.5290    16.7410    15.8840 C.3          1 ACO201   0.0000
    21 O4B        -13.2400    17.6150    14.7730 O.3          1 ACO201   0.0000
    22 C5B        -12.8990    15.3650    15.6640 C.3          1 ACO201   0.0000
    23 O5B        -13.6280    14.6430    14.6870 O.3          1 ACO201   0.0000
    24 P1A        -12.9510    13.8870    13.4410 P.3          1 ACO201   0.0000
    25 O1A        -12.0370    14.8640    12.7840 O.co2        1 ACO201   0.0000
    26 O2A        -14.0020    13.2190    12.5940 O.co2        1 ACO201  -1.0000
    27 O3A        -12.0980    12.6970    14.1370 O.3          1 ACO201   0.0000
    28 P2A        -10.4800    12.6370    14.1550 P.3          1 ACO201   0.0000
    29 O4A         -9.8990    13.7620    14.9580 O.co2        1 ACO201   0.0000
    30 O5A         -9.9970    12.3140    12.7340 O.co2        1 ACO201  -1.0000
    31 O6A        -10.2810    11.2420    14.9500 O.3          1 ACO201   0.0000
    32 CBP         -9.9460     9.9240    16.9350 C.3          1 ACO201   0.0000
    33 CCP        -10.7570    11.0310    16.2730 C.3          1 ACO201   0.0000
    34 CDP        -10.6580     9.5460    18.2250 C.3          1 ACO201   0.0000
    35 CEP         -9.8870     8.7000    16.0380 C.3          1 ACO201   0.0000
    36 CAP         -8.5290    10.4300    17.2310 C.3          1 ACO201   0.0000
    37 OAP         -8.6410    11.4210    18.2880 O.3          1 ACO201   0.0000
    38 C9P         -7.5730     9.3160    17.6040 C.2          1 ACO201   0.0000
    39 O9P         -6.9760     8.6710    16.7580 O.2          1 ACO201   0.0000
    40 N8P         -7.3950     9.0840    18.9040 N.am         1 ACO201   0.0000
    41 C7P         -6.3830     8.1850    19.4450 C.3          1 ACO201   0.0000
    42 C6P         -6.7210     6.7180    19.2700 C.3          1 ACO201   0.0000
    43 C5P         -7.8320     6.2180    20.1620 C.2          1 ACO201   0.0000
    44 O5P         -7.7980     6.3420    21.3890 O.2          1 ACO201   0.0000
    45 N4P         -8.7780     5.5620    19.5020 N.am         1 ACO201   0.0000
    46 C3P         -9.8310     4.7880    20.1320 C.3          1 ACO201   0.0000
    47 C2P         -9.2140     3.6050    20.8690 C.3          1 ACO201   0.0000
    48 S1P         -8.9690     2.2450    19.7540 S.3          1 ACO201   0.0000
    49 C          -10.1150     1.1290    20.2250 C.2          1 ACO201   0.0000
    50 O          -10.9270     0.9670    19.4030 O.2          1 ACO201   0.0000
    51 CH3        -10.1630     0.3930    21.5430 C.3          1 ACO201   0.0000
    52 H2A        -12.0508    22.1449    12.6853 H            1 ACO201   0.0000
    53 H6A1       -13.5608    19.5491     8.3301 H            1 ACO201   0.0000
    54 H6A2       -12.6695    21.0330     8.2706 H            1 ACO201   0.0000
    55 H8A        -15.2949    16.7043    11.8476 H            1 ACO201   0.0000
    56 H1B        -14.7342    18.9179    14.6768 H            1 ACO201   0.0000
    57 H2B        -15.4731    16.2157    13.9905 H            1 ACO201   0.0000
    58 H7         -17.2870    17.4569    15.4779 H            1 ACO201   0.0000
    59 H3B        -15.3937    15.8209    16.2988 H            1 ACO201   0.0000
    60 H4B        -13.1604    17.1417    16.7228 H            1 ACO201   0.0000
    61 H5B1       -12.9075    14.8565    16.5250 H            1 ACO201   0.0000
    62 H5B2       -11.9552    15.4797    15.3539 H            1 ACO201   0.0000
    63 HCP1       -11.7205    10.7652    16.2420 H            1 ACO201   0.0000
    64 HCP2       -10.6609    11.8753    16.8003 H            1 ACO201   0.0000
    65 HDP1       -10.1493     8.8188    18.6858 H            1 ACO201   0.0000
    66 HDP2       -10.7115    10.3458    18.8229 H            1 ACO201   0.0000
    67 HDP3       -11.5813     9.2250    18.0144 H            1 ACO201   0.0000
    68 HEP1        -9.3521     7.9838    16.4862 H            1 ACO201   0.0000
    69 HEP2       -10.8142     8.3664    15.8679 H            1 ACO201   0.0000
    70 HEP3        -9.4558     8.9438    15.1693 H            1 ACO201   0.0000
    71 HAP         -8.1792    10.8831    16.4110 H            1 ACO201   0.0000
    72 H21         -7.8045    11.4200    18.8359 H            1 ACO201   0.0000
    73 H8P         -7.9941     9.5570    19.5500 H            1 ACO201   0.0000
    74 H7P1        -6.2832     8.3723    20.4222 H            1 ACO201   0.0000
    75 H7P2        -5.5165     8.3677    18.9804 H            1 ACO201   0.0000
    76 H6P1        -5.8991     6.1831    19.4659 H            1 ACO201   0.0000
    77 H6P2        -6.9948     6.5723    18.3193 H            1 ACO201   0.0000
    78 H4P         -8.7642     5.6040    18.5030 H            1 ACO201   0.0000
    79 H3P1       -10.4634     4.4534    19.4333 H            1 ACO201   0.0000
    80 H3P2       -10.3266     5.3647    20.7815 H            1 ACO201   0.0000
    81 H2P1        -9.8258     3.3205    21.6070 H            1 ACO201   0.0000
    82 H2P2        -8.3326     3.8792    21.2537 H            1 ACO201   0.0000
    83 HH31       -10.9572    -0.2145    21.5568 H            1 ACO201   0.0000
    84 HH32        -9.3285    -0.1468    21.6540 H            1 ACO201   0.0000
    85 HH33       -10.2350     1.0529    22.2909 H            1 ACO201   0.0000
@<TRIPOS>BOND
     1    1    2      ar
     2    1    6      ar
     3    2    3      ar
     4    3    4      ar
     5    4    5      ar
     6    4   10       1
     7    5    6      ar
     8    5    8       1
     9    6    7       1
    10    8    9       2
    11    9   10       1
    12   10   11       1
    13   11   12       1
    14   11   21       1
    15   12   13       1
    16   12   14       1
    17   14   15       1
    18   14   20       1
    19   15   16       1
    20   16   17      ar
    21   16   18      ar
    22   16   19      ar
    23   20   21       1
    24   20   22       1
    25   22   23       1
    26   23   24       1
    27   24   25      ar
    28   24   26      ar
    29   24   27       1
    30   27   28       1
    31   28   29      ar
    32   28   30      ar
    33   28   31       1
    34   31   33       1
    35   32   33       1
    36   32   34       1
    37   32   35       1
    38   32   36       1
    39   36   37       1
    40   36   38       1
    41   38   39       2
    42   38   40      am
    43   40   41       1
    44   41   42       1
    45   42   43       1
    46   43   44       2
    47   43   45      am
    48   45   46       1
    49   46   47       1
    50   47   48       1
    51   48   49       1
    52   49   50       2
    53   49   51       1
    54    2   52       1
    55    7   53       1
    56    7   54       1
    57    9   55       1
    58   11   56       1
    59   12   57       1
    60   13   58       1
    61   14   59       1
    62   51   85       1
    63   51   84       1
    64   20   60       1
    65   22   61       1
    66   22   62       1
    67   51   83       1
    68   47   82       1
    69   33   63       1
    70   33   64       1
    71   34   65       1
    72   34   66       1
    73   34   67       1
    74   35   68       1
    75   35   69       1
    76   35   70       1
    77   36   71       1
    78   37   72       1
    79   40   73       1
    80   41   74       1
    81   41   75       1
    82   42   76       1
    83   42   77       1
    84   45   78       1
    85   46   79       1
    86   46   80       1
    87   47   81       1
@<TRIPOS>SUBSTRUCTURE
     1 ACO201      1 GROUP             4 C     ACO     0 **** ACO C 201
