@<TRIPOS>MOLECULE
1n5d_NDP_1_ligand
   73    77     1     0     0
SMALL
NO_CHARGES


@<TRIPOS>ATOM
     1 PA          99.4600    50.8010     6.8490 P.3          1 NDP300   0.0000
     2 O1A        100.3620    51.6320     6.0960 O.co2        1 NDP300   0.0000
     3 O2A         99.6720    49.3240     6.9840 O.co2        1 NDP300  -1.0000
     4 O5B         99.3530    51.4720     8.3490 O.3          1 NDP300   0.0000
     5 C5B         98.5070    50.8340     9.3260 C.3          1 NDP300   0.0000
     6 C4B         98.6560    51.7210    10.5520 C.3          1 NDP300   0.0000
     7 O4B         97.8410    51.1160    11.6030 O.3          1 NDP300   0.0000
     8 C3B        100.0170    51.8450    11.1370 C.3          1 NDP300   0.0000
     9 O3B        100.2900    53.1820    11.6360 O.3          1 NDP300   0.0000
    10 C2B        100.1440    50.7600    12.1200 C.3          1 NDP300   0.0000
    11 O2B        101.1180    50.8560    13.1550 O.3          1 NDP300   0.0000
    12 C1B         98.7590    50.9600    12.6890 C.3          1 NDP300   0.0000
    13 N9A         98.3950    49.8430    13.6040 N.pl3        1 NDP300   0.0000
    14 C8A         98.3420    48.4580    13.3280 C.2          1 NDP300   0.0000
    15 N7A         97.9910    47.7760    14.3930 N.2          1 NDP300   0.0000
    16 C5A         97.8020    48.6920    15.3990 C.ar         1 NDP300   0.0000
    17 C6A         97.4300    48.6030    16.7720 C.ar         1 NDP300   0.0000
    18 N6A         97.1850    47.4090    17.3360 N.pl3        1 NDP300   0.0000
    19 N1A         97.3260    49.7440    17.5030 N.ar         1 NDP300   0.0000
    20 C2A         97.5780    50.9430    16.9330 C.ar         1 NDP300   0.0000
    21 N3A         97.9410    51.1320    15.6630 N.ar         1 NDP300   0.0000
    22 C4A         98.0370    49.9560    14.9360 C.ar         1 NDP300   0.0000
    23 O3          97.9380    51.0130     6.4500 O.3          1 NDP300   0.0000
    24 PN          97.1010    51.6870     5.2870 P.3          1 NDP300   0.0000
    25 O1N         97.4830    50.9650     4.0930 O.co2        1 NDP300   0.0000
    26 O2N         97.3810    53.1560     5.4150 O.co2        1 NDP300  -1.0000
    27 O5D         95.5640    51.4760     5.7120 O.3          1 NDP300   0.0000
    28 C5D         94.9470    52.1310     6.8770 C.3          1 NDP300   0.0000
    29 C4D         93.4400    51.7200     6.9010 C.3          1 NDP300   0.0000
    30 O4D         92.9530    51.7790     5.5620 O.3          1 NDP300   0.0000
    31 C3D         93.2130    50.2700     7.3430 C.3          1 NDP300   0.0000
    32 O3D         92.0310    50.2320     8.1610 O.3          1 NDP300   0.0000
    33 C2D         93.0870    49.5020     6.0600 C.3          1 NDP300   0.0000
    34 O2D         92.4160    48.2790     6.2760 O.3          1 NDP300   0.0000
    35 C1D         92.2810    50.5590     5.2330 C.3          1 NDP300   0.0000
    36 N1N         92.3640    50.2620     3.7640 N.ar         1 NDP300   1.0000
    37 C2N         93.6290    50.3960     3.1190 C.ar         1 NDP300   0.0000
    38 C3N         93.6510    50.0950     1.7030 C.ar         1 NDP300   0.0000
    39 C7N         94.9060    50.2150     0.9310 C.2          1 NDP300   0.0000
    40 O7N         94.9660    50.0100    -0.3040 O.2          1 NDP300   0.0000
    41 N7N         96.0680    50.5800     1.5390 N.am         1 NDP300   0.0000
    42 C4N         92.4560    49.6990     1.0790 C.ar         1 NDP300   0.0000
    43 C5N         91.2610    49.5780     1.7200 C.ar         1 NDP300   0.0000
    44 C6N         91.2110    49.8590     3.0590 C.ar         1 NDP300   0.0000
    45 P2B        102.6540    50.6650    12.9500 P.3          1 NDP300   0.0000
    46 O1X        102.7530    49.3040    12.3970 O.co2        1 NDP300   0.0000
    47 O2X        103.2990    50.8130    14.2690 O.co2        1 NDP300  -1.0000
    48 O3X        103.2060    51.6880    11.9570 O.co2        1 NDP300  -1.0000
    49 H5B1        98.8195    49.9035     9.5172 H            1 NDP300   0.0000
    50 H5B2        97.5568    50.8093     9.0153 H            1 NDP300   0.0000
    51 H4B         98.3021    52.6329    10.3442 H            1 NDP300   0.0000
    52 H3B        100.6731    51.6612    10.4050 H            1 NDP300   0.0000
    53 H5         101.2138    53.2132    12.0177 H            1 NDP300   0.0000
    54 H2B        100.2089    49.8751    11.6587 H            1 NDP300   0.0000
    55 H1B         98.7603    51.8080    13.2190 H            1 NDP300   0.0000
    56 H8A         98.5454    48.0508    12.4376 H            1 NDP300   0.0000
    57 H6A1        96.9245    47.3554    18.3000 H            1 NDP300   0.0000
    58 H6A2        97.2631    46.5736    16.7920 H            1 NDP300   0.0000
    59 H2A         97.4849    51.7545    17.5098 H            1 NDP300   0.0000
    60 H5D1        95.0290    53.1242     6.7938 H            1 NDP300   0.0000
    61 H5D2        95.3971    51.8285     7.7172 H            1 NDP300   0.0000
    62 H4D         92.9211    52.3443     7.4850 H            1 NDP300   0.0000
    63 H3D         94.0015    49.9422     7.8634 H            1 NDP300   0.0000
    64 H16         92.1595    50.8196     8.9599 H            1 NDP300   0.0000
    65 H2D         93.9864    49.3448     5.6521 H            1 NDP300   0.0000
    66 H18         92.3418    47.7823     5.4113 H            1 NDP300   0.0000
    67 H1D         91.3277    50.5894     5.5334 H            1 NDP300   0.0000
    68 H2N         94.4500    50.6803     3.6142 H            1 NDP300   0.0000
    69 H7N1        96.9094    50.6571     1.0041 H            1 NDP300   0.0000
    70 H7N2        96.0802    50.7710     2.5205 H            1 NDP300   0.0000
    71 H4N         92.4851    49.4927     0.1009 H            1 NDP300   0.0000
    72 H5N         90.4406    49.2912     1.2254 H            1 NDP300   0.0000
    73 H6N         90.3414    49.7770     3.5458 H            1 NDP300   0.0000
@<TRIPOS>BOND
     1    1    2      ar
     2    1    3      ar
     3    1    4       1
     4    1   23       1
     5    4    5       1
     6    5    6       1
     7    6    7       1
     8    6    8       1
     9    7   12       1
    10    8    9       1
    11    8   10       1
    12   10   11       1
    13   10   12       1
    14   11   45       1
    15   12   13       1
    16   13   14       1
    17   13   22       1
    18   14   15       2
    19   15   16       1
    20   16   17      ar
    21   16   22      ar
    22   17   18       1
    23   17   19      ar
    24   19   20      ar
    25   20   21      ar
    26   21   22      ar
    27   23   24       1
    28   24   25      ar
    29   24   26      ar
    30   24   27       1
    31   27   28       1
    32   28   29       1
    33   29   30       1
    34   29   31       1
    35   30   35       1
    36   31   32       1
    37   31   33       1
    38   33   34       1
    39   33   35       1
    40   35   36       1
    41   36   37      ar
    42   36   44      ar
    43   37   38      ar
    44   38   39       1
    45   38   42      ar
    46   39   40       2
    47   39   41      am
    48   42   43      ar
    49   43   44      ar
    50   45   46      ar
    51   45   47      ar
    52   45   48      ar
    53   43   72       1
    54    5   49       1
    55    5   50       1
    56    6   51       1
    57    8   52       1
    58    9   53       1
    59   10   54       1
    60   12   55       1
    61   14   56       1
    62   18   57       1
    63   18   58       1
    64   20   59       1
    65   44   73       1
    66   28   60       1
    67   28   61       1
    68   29   62       1
    69   31   63       1
    70   32   64       1
    71   33   65       1
    72   34   66       1
    73   35   67       1
    74   37   68       1
    75   41   69       1
    76   41   70       1
    77   42   71       1
@<TRIPOS>SUBSTRUCTURE
     1 NDP300      1 GROUP             4 A     NDP     0 **** NDP A 300
