@<TRIPOS>MOLECULE
4ec3_REN_1_ligand
   48    50     1     0     0
SMALL
NO_CHARGES


@<TRIPOS>ATOM
     1 C2          30.0210    33.7530    20.5590 C.ar         1 REN602   0.0000
     2 C3          30.7790    32.7930    19.8640 C.ar         1 REN602   0.0000
     3 C5          30.3990    32.3870    18.5950 C.ar         1 REN602   0.0000
     4 C8          29.2710    32.9210    18.0010 C.ar         1 REN602   0.0000
     5 C9          28.5130    33.8690    18.6710 C.ar         1 REN602   0.0000
     6 C10         27.2780    34.4450    18.0010 C.3          1 REN602   0.0000
     7 C11         26.3000    34.6830    19.0880 C.3          1 REN602   0.0000
     8 N12         26.9070    35.6860    19.9030 N.4          1 REN602   1.0000
     9 C14         28.0840    35.3160    20.7180 C.3          1 REN602   0.0000
    10 C16         27.7450    34.7000    22.1040 C.3          1 REN602   0.0000
    11 C17         27.4180    35.6390    23.2960 C.ar         1 REN602   0.0000
    12 C25         28.3730    35.8870    24.2880 C.ar         1 REN602   0.0000
    13 C24         28.0560    36.7340    25.3510 C.ar         1 REN602   0.0000
    14 C21         26.7790    37.3270    25.4100 C.ar         1 REN602   0.0000
    15 O22         26.4510    38.1560    26.4370 O.3          1 REN602   0.0000
    16 C23         26.5500    37.7050    27.7550 C.3          1 REN602   0.0000
    17 C19         25.8610    37.0770    24.4400 C.ar         1 REN602   0.0000
    18 O20         24.6140    37.6670    24.5110 O.3          1 REN602   0.0000
    19 C18         26.1710    36.2330    23.3850 C.ar         1 REN602   0.0000
    20 C1          28.8950    34.2930    19.9740 C.ar         1 REN602   0.0000
    21 C13         26.0760    36.8820    20.0540 C.3          1 REN602   0.0000
    22 O6          31.1560    31.4410    17.9250 O.3          1 REN602   0.0000
    23 C7          31.3430    31.5350    16.5220 C.3          1 REN602   0.0000
    24 O4          31.9140    32.2450    20.4430 O.3          1 REN602   0.0000
    25 H1          30.2981    34.0431    21.4750 H            1 REN602   0.0000
    26 H2          29.0009    32.6228    17.0855 H            1 REN602   0.0000
    27 H3          26.9081    33.7958    17.3363 H            1 REN602   0.0000
    28 H4          27.5011    35.3037    17.5397 H            1 REN602   0.0000
    29 H5          26.1455    33.8464    19.6136 H            1 REN602   0.0000
    30 H6          25.4306    35.0084    18.7161 H            1 REN602   0.0000
    31 H7          28.6462    36.1310    20.8581 H            1 REN602   0.0000
    32 H8          28.5316    34.1461    22.3768 H            1 REN602   0.0000
    33 H9          26.9498    34.1079    21.9730 H            1 REN602   0.0000
    34 H10         29.2760    35.4605    24.2357 H            1 REN602   0.0000
    35 H11         28.7304    36.9188    26.0659 H            1 REN602   0.0000
    36 H12         26.2728    38.4356    28.3790 H            1 REN602   0.0000
    37 H13         25.9524    36.9134    27.8822 H            1 REN602   0.0000
    38 H14         27.4957    37.4431    27.9475 H            1 REN602   0.0000
    39 H15         23.9343    37.4867    23.8000 H            1 REN602   0.0000
    40 H16         25.4856    36.0511    22.6799 H            1 REN602   0.0000
    41 H17         26.5500    37.5464    20.6318 H            1 REN602   0.0000
    42 H18         25.9047    37.2846    19.1548 H            1 REN602   0.0000
    43 H19         25.2058    36.6319    20.4785 H            1 REN602   0.0000
    44 H20         31.9116    30.7739    16.2098 H            1 REN602   0.0000
    45 H21         30.4548    31.4973    16.0641 H            1 REN602   0.0000
    46 H22         31.7945    32.4000    16.3031 H            1 REN602   0.0000
    47 H23         32.4497    31.5629    19.9452 H            1 REN602   0.0000
    48 H24         27.4515    36.0682    19.1564 H            1 REN602   0.0000
@<TRIPOS>BOND
     1    1    2      ar
     2    1   20      ar
     3    2    3      ar
     4    2   24       1
     5    3    4      ar
     6    3   22       1
     7    4    5      ar
     8    5    6       1
     9    5   20      ar
    10    6    7       1
    11    7    8       1
    12    8    9       1
    13    8   21       1
    14    9   10       1
    15    9   20       1
    16   10   11       1
    17   11   12      ar
    18   11   19      ar
    19   12   13      ar
    20   13   14      ar
    21   14   15       1
    22   14   17      ar
    23   15   16       1
    24   17   18       1
    25   17   19      ar
    26   22   23       1
    27    1   25       1
    28    4   26       1
    29    6   27       1
    30    6   28       1
    31    7   29       1
    32    7   30       1
    33    9   31       1
    34   10   32       1
    35   10   33       1
    36   12   34       1
    37   13   35       1
    38   16   36       1
    39   16   37       1
    40   16   38       1
    41   18   39       1
    42   19   40       1
    43   21   41       1
    44   21   42       1
    45   21   43       1
    46   23   44       1
    47   23   45       1
    48   23   46       1
    49   24   47       1
    50    8   48       1
@<TRIPOS>SUBSTRUCTURE
     1 REN602      1 GROUP             4 A     REN     0 **** REN A 602
