@<TRIPOS>MOLECULE
4ge9_0L0_2_ligand
   61    64     1     0     0
SMALL
NO_CHARGES


@<TRIPOS>ATOM
     1 N44         27.9390    21.9560   -52.1660 N.ar         1 0L04000   1.0000
     2 C33         30.8030    17.8880   -52.1320 C.3          1 0L04000   0.0000
     3 C7          34.6420    18.0980   -48.7250 C.3          1 0L04000   0.0000
     4 C6          31.3680    16.0260   -50.5430 C.ar         1 0L04000   0.0000
     5 C13         22.7890    18.7910   -52.0140 C.ar         1 0L04000   0.0000
     6 C8          30.1880    15.2200   -51.0670 C.3          1 0L04000   0.0000
     7 C16         20.4920    17.4810   -52.8810 C.ar         1 0L04000   0.0000
     8 C19         23.4710    23.2110   -54.3430 C.3          1 0L04000   0.0000
     9 C26         26.8650    21.2620   -52.7090 C.ar         1 0L04000   0.0000
    10 C1          31.6540    17.3030   -51.0270 C.ar         1 0L04000   0.0000
    11 C2          32.7300    18.0170   -50.4450 C.ar         1 0L04000   0.0000
    12 C3          33.4640    17.4070   -49.3990 C.ar         1 0L04000   0.0000
    13 N4          33.1350    16.1850   -48.9850 N.ar         1 0L04000   1.0000
    14 C5          32.1510    15.4950   -49.5220 C.ar         1 0L04000   0.0000
    15 O9          30.0070    21.9870   -51.4080 O.3          1 0L04000  -1.0000
    16 N10         30.5250    19.3050   -51.8770 N.pl3        1 0L04000   0.0000
    17 C11         23.5990    19.0250   -54.4080 C.3          1 0L04000   0.0000
    18 C12         22.6100    18.5400   -53.3770 C.ar         1 0L04000   0.0000
    19 C14         21.8170    18.3820   -51.0840 C.ar         1 0L04000   0.0000
    20 C15         20.6710    17.7120   -51.5140 C.ar         1 0L04000   0.0000
    21 C17         21.4620    17.8750   -53.8120 C.ar         1 0L04000   0.0000
    22 O18         23.4300    21.8800   -53.8020 O.3          1 0L04000   0.0000
    23 C22         24.6150    21.2180   -53.6050 C.ar         1 0L04000   0.0000
    24 C23         24.7430    19.8460   -53.8440 C.ar         1 0L04000   0.0000
    25 C24         25.9150    19.2010   -53.5620 C.ar         1 0L04000   0.0000
    26 C25         25.6830    21.9070   -53.0180 C.ar         1 0L04000   0.0000
    27 C27         26.9930    19.8820   -53.0020 C.ar         1 0L04000   0.0000
    28 C28         28.2600    19.1950   -52.7140 C.ar         1 0L04000   0.0000
    29 C29         29.2860    19.9080   -52.1730 C.ar         1 0L04000   0.0000
    30 C30         29.1010    21.3360   -51.8940 C.ar         1 0L04000   0.0000
    31 O31         27.8230    23.3310   -51.8530 O.3          1 0L04000  -1.0000
    32 O45         33.0210    19.2860   -50.8600 O.3          1 0L04000   0.0000
    33 P46         29.7330    13.6380   -53.1760 P.3          1 0L04000   0.0000
    34 O47         30.4140    14.8760   -52.4300 O.3          1 0L04000   0.0000
    35 O48         29.0310    14.2200   -54.4360 O.co2        1 0L04000   0.0000
    36 O49         30.8060    12.5740   -53.5650 O.co2        1 0L04000  -1.0000
    37 O50         28.6800    12.9570   -52.2750 O.co2        1 0L04000  -1.0000
    38 H1          29.9387    17.3875   -52.1806 H            1 0L04000   0.0000
    39 H2          31.2885    17.8001   -53.0018 H            1 0L04000   0.0000
    40 H3          35.0185    17.5004   -48.0171 H            1 0L04000   0.0000
    41 H4          35.3477    18.2938   -49.4059 H            1 0L04000   0.0000
    42 H5          34.3333    18.9535   -48.3094 H            1 0L04000   0.0000
    43 H6          23.6120    19.2636   -51.6987 H            1 0L04000   0.0000
    44 H7          29.3535    15.7663   -50.9953 H            1 0L04000   0.0000
    45 H8          30.0877    14.3855   -50.5251 H            1 0L04000   0.0000
    46 H9          19.6593    17.0278   -53.1991 H            1 0L04000   0.0000
    47 H10         22.5395    23.5642   -54.4302 H            1 0L04000   0.0000
    48 H11         23.9962    23.8032   -53.7319 H            1 0L04000   0.0000
    49 H12         23.9058    23.1916   -55.2433 H            1 0L04000   0.0000
    50 H13         31.9622    14.5709   -49.1898 H            1 0L04000   0.0000
    51 H14         31.2467    19.8686   -51.4752 H            1 0L04000   0.0000
    52 H15         23.1073    19.5888   -55.0717 H            1 0L04000   0.0000
    53 H16         23.9854    18.2268   -54.8701 H            1 0L04000   0.0000
    54 H17         21.9474    18.5719   -50.1109 H            1 0L04000   0.0000
    55 H18         19.9874    17.4015   -50.8535 H            1 0L04000   0.0000
    56 H19         21.3326    17.6807   -54.7844 H            1 0L04000   0.0000
    57 H20         25.9995    18.2247   -53.7610 H            1 0L04000   0.0000
    58 H21         25.5887    22.8825   -52.8190 H            1 0L04000   0.0000
    59 H22         28.3666    18.2206   -52.9120 H            1 0L04000   0.0000
    60 H23         33.7818    19.7855   -50.4456 H            1 0L04000   0.0000
    61 H24         33.6561    15.7751   -48.2364 H            1 0L04000   0.0000
@<TRIPOS>BOND
     1    1    9      ar
     2    1   30      ar
     3    1   31       1
     4    2   10       1
     5    2   16       1
     6    3   12       1
     7    4    6       1
     8    4   10      ar
     9    4   14      ar
    10    5   18      ar
    11    5   19      ar
    12    6   34       1
    13    7   20      ar
    14    7   21      ar
    15    8   22       1
    16    9   26      ar
    17    9   27      ar
    18   10   11      ar
    19   11   12      ar
    20   11   32       1
    21   12   13      ar
    22   13   14      ar
    23   15   30       1
    24   16   29       1
    25   17   18       1
    26   17   24       1
    27   18   21      ar
    28   19   20      ar
    29   22   23       1
    30   23   24      ar
    31   23   26      ar
    32   24   25      ar
    33   25   27      ar
    34   27   28      ar
    35   28   29      ar
    36   29   30      ar
    37   33   34       1
    38   33   35      ar
    39   33   36      ar
    40   33   37      ar
    41    2   38       1
    42    2   39       1
    43    3   40       1
    44    3   41       1
    45    3   42       1
    46    5   43       1
    47    6   44       1
    48    6   45       1
    49    7   46       1
    50    8   47       1
    51    8   48       1
    52    8   49       1
    53   14   50       1
    54   32   60       1
    55   16   51       1
    56   17   52       1
    57   17   53       1
    58   19   54       1
    59   20   55       1
    60   21   56       1
    61   25   57       1
    62   26   58       1
    63   28   59       1
    64   13   61       1
@<TRIPOS>SUBSTRUCTURE
     1 0L04000     1 GROUP             4 B     0L0     0 **** 0L0 B4000
