@<TRIPOS>MOLECULE
4ifc_ADP_1_ligand
   39    41     1     0     0
SMALL
NO_CHARGES


@<TRIPOS>ATOM
     1 PB          -2.8440     4.6320    12.8570 P.3          1 ADP1101   0.0000
     2 O1B         -3.1600     5.7010    13.9860 O.co2        1 ADP1101   0.0000
     3 O2B         -3.4410     5.0280    11.5680 O.co2        1 ADP1101  -1.0000
     4 O3B         -1.2470     4.5380    12.8010 O.co2        1 ADP1101  -1.0000
     5 PA          -3.2570     1.8810    12.4650 P.3          1 ADP1101   0.0000
     6 O1A         -2.0510     2.0920    11.4110 O.co2        1 ADP1101   0.0000
     7 O2A         -4.5370     1.5680    11.7920 O.co2        1 ADP1101  -1.0000
     8 O3A         -3.3370     3.2010    13.4010 O.3          1 ADP1101   0.0000
     9 O5'         -2.7800     0.6950    13.4420 O.3          1 ADP1101   0.0000
    10 C5'         -1.4020     0.5590    13.8100 C.3          1 ADP1101   0.0000
    11 C4'         -1.0740    -0.8870    14.2220 C.3          1 ADP1101   0.0000
    12 O4'         -2.0780    -1.4040    15.1470 O.3          1 ADP1101   0.0000
    13 C3'         -1.0850    -1.8640    13.0470 C.3          1 ADP1101   0.0000
    14 O3'          0.1650    -1.8390    12.3450 O.3          1 ADP1101   0.0000
    15 C2'         -1.2570    -3.1860    13.7770 C.3          1 ADP1101   0.0000
    16 O2'         -0.0180    -3.5860    14.3790 O.3          1 ADP1101   0.0000
    17 C1'         -2.2660    -2.8220    14.8690 C.3          1 ADP1101   0.0000
    18 N9          -3.6200    -3.1490    14.3470 N.pl3        1 ADP1101   0.0000
    19 C8          -4.3870    -2.3780    13.5720 C.2          1 ADP1101   0.0000
    20 N7          -5.5260    -3.0180    13.2960 N.2          1 ADP1101   0.0000
    21 C5          -5.4830    -4.2050    13.8950 C.ar         1 ADP1101   0.0000
    22 C6          -6.3510    -5.2930    13.9730 C.ar         1 ADP1101   0.0000
    23 N6          -7.5260    -5.2740    13.3600 N.pl3        1 ADP1101   0.0000
    24 N1          -5.9860    -6.3770    14.6850 N.ar         1 ADP1101   0.0000
    25 C2          -4.8190    -6.4160    15.3190 C.ar         1 ADP1101   0.0000
    26 N3          -3.9650    -5.3990    15.2600 N.ar         1 ADP1101   0.0000
    27 C4          -4.2690    -4.2870    14.5620 C.ar         1 ADP1101   0.0000
    28 H5'1        -1.2083     1.1687    14.5786 H            1 ADP1101   0.0000
    29 H5'2        -0.8299     0.8134    13.0303 H            1 ADP1101   0.0000
    30 H4'         -0.1764    -0.9096    14.6622 H            1 ADP1101   0.0000
    31 H3'         -1.8524    -1.6851    12.4313 H            1 ADP1101   0.0000
    32 H5           0.0083    -1.5698    11.3948 H            1 ADP1101   0.0000
    33 H2'         -1.6148    -3.8955    13.1699 H            1 ADP1101   0.0000
    34 H7           0.6783    -3.6928    13.6692 H            1 ADP1101   0.0000
    35 H1'         -2.0817    -3.3570    15.6935 H            1 ADP1101   0.0000
    36 H9          -4.1457    -1.4631    13.2485 H            1 ADP1101   0.0000
    37 H10         -8.1371    -6.0628    13.4259 H            1 ADP1101   0.0000
    38 H11         -7.8014    -4.4709    12.8316 H            1 ADP1101   0.0000
    39 H12         -4.5781    -7.2273    15.8517 H            1 ADP1101   0.0000
@<TRIPOS>BOND
     1    1    2      ar
     2    1    3      ar
     3    1    4      ar
     4    1    8       1
     5    5    6      ar
     6    5    7      ar
     7    5    8       1
     8    5    9       1
     9    9   10       1
    10   10   11       1
    11   11   12       1
    12   11   13       1
    13   12   17       1
    14   13   14       1
    15   13   15       1
    16   15   16       1
    17   15   17       1
    18   17   18       1
    19   18   19       1
    20   18   27       1
    21   19   20       2
    22   20   21       1
    23   21   22      ar
    24   21   27      ar
    25   22   23       1
    26   22   24      ar
    27   24   25      ar
    28   25   26      ar
    29   26   27      ar
    30   25   39       1
    31   23   38       1
    32   23   37       1
    33   10   28       1
    34   10   29       1
    35   11   30       1
    36   13   31       1
    37   14   32       1
    38   15   33       1
    39   16   34       1
    40   17   35       1
    41   19   36       1
@<TRIPOS>SUBSTRUCTURE
     1 ADP1101     1 GROUP             4 A     ADP     0 **** ADP A1101
