@<TRIPOS>MOLECULE
4o7l_ADP_1_ligand
   39    41     1     0     0
SMALL
NO_CHARGES


@<TRIPOS>ATOM
     1 PB          24.7010   -13.8210     0.9560 P.3          1 ADP301   0.0000
     2 O1B         25.2980   -14.4460    -0.2800 O.co2        1 ADP301   0.0000
     3 O2B         23.6120   -12.8070     0.7010 O.co2        1 ADP301  -1.0000
     4 O3B         25.7240   -13.4120     1.9790 O.co2        1 ADP301  -1.0000
     5 PA          23.0840   -14.9800     3.0460 P.3          1 ADP301   0.0000
     6 O1A         22.9660   -13.5800     3.5910 O.co2        1 ADP301   0.0000
     7 O2A         21.7910   -15.7060     2.7620 O.co2        1 ADP301  -1.0000
     8 O3A         23.9430   -15.0600     1.6740 O.3          1 ADP301   0.0000
     9 O5'         23.9870   -15.8120     4.1030 O.3          1 ADP301   0.0000
    10 C5'         24.1010   -17.2430     4.0820 C.3          1 ADP301   0.0000
    11 C4'         25.4510   -17.7100     3.5210 C.3          1 ADP301   0.0000
    12 O4'         25.8110   -19.0120     4.0250 O.3          1 ADP301   0.0000
    13 C3'         25.4220   -17.8770     2.0120 C.3          1 ADP301   0.0000
    14 O3'         26.7380   -17.5440     1.5460 O.3          1 ADP301   0.0000
    15 C2'         25.1330   -19.3660     1.8180 C.3          1 ADP301   0.0000
    16 O2'         25.5670   -19.8750     0.5600 O.3          1 ADP301   0.0000
    17 C1'         25.9150   -19.9800     2.9620 C.3          1 ADP301   0.0000
    18 N9          25.3830   -21.2540     3.5060 N.pl3        1 ADP301   0.0000
    19 C8          24.0910   -21.6310     3.6230 C.2          1 ADP301   0.0000
    20 N7          23.9980   -22.8550     4.2030 N.2          1 ADP301   0.0000
    21 C5          25.2540   -23.2680     4.4920 C.ar         1 ADP301   0.0000
    22 C6          25.9040   -24.4580     5.1160 C.ar         1 ADP301   0.0000
    23 N6          25.1770   -25.4900     5.5850 N.pl3        1 ADP301   0.0000
    24 N1          27.2600   -24.4810     5.1990 N.ar         1 ADP301   0.0000
    25 C2          28.0320   -23.4700     4.7570 C.ar         1 ADP301   0.0000
    26 N3          27.5140   -22.3640     4.1940 N.ar         1 ADP301   0.0000
    27 C4          26.1650   -22.2040     4.0340 C.ar         1 ADP301   0.0000
    28 H5'1        23.3691   -17.6158     3.5116 H            1 ADP301   0.0000
    29 H5'2        24.0041   -17.5873     5.0158 H            1 ADP301   0.0000
    30 H4'         26.1602   -17.0499     3.7688 H            1 ADP301   0.0000
    31 H3'         24.7211   -17.3037     1.5877 H            1 ADP301   0.0000
    32 H5          26.6819   -16.7723     0.9124 H            1 ADP301   0.0000
    33 H2'         24.1562   -19.5426     1.9389 H            1 ADP301   0.0000
    34 H7          24.7818   -20.2382     0.0585 H            1 ADP301   0.0000
    35 H1'         26.8726   -20.0952     2.6978 H            1 ADP301   0.0000
    36 H9          23.3098   -21.0833     3.3233 H            1 ADP301   0.0000
    37 H10         25.6348   -26.2767     5.9991 H            1 ADP301   0.0000
    38 H11         24.1794   -25.4696     5.5192 H            1 ADP301   0.0000
    39 H12         29.0248   -23.5442     4.8507 H            1 ADP301   0.0000
@<TRIPOS>BOND
     1    1    2      ar
     2    1    3      ar
     3    1    4      ar
     4    1    8       1
     5    5    6      ar
     6    5    7      ar
     7    5    8       1
     8    5    9       1
     9    9   10       1
    10   10   11       1
    11   11   12       1
    12   11   13       1
    13   12   17       1
    14   13   14       1
    15   13   15       1
    16   15   16       1
    17   15   17       1
    18   17   18       1
    19   18   19       1
    20   18   27       1
    21   19   20       2
    22   20   21       1
    23   21   22      ar
    24   21   27      ar
    25   22   23       1
    26   22   24      ar
    27   24   25      ar
    28   25   26      ar
    29   26   27      ar
    30   25   39       1
    31   23   38       1
    32   23   37       1
    33   10   28       1
    34   10   29       1
    35   11   30       1
    36   13   31       1
    37   14   32       1
    38   15   33       1
    39   16   34       1
    40   17   35       1
    41   19   36       1
@<TRIPOS>SUBSTRUCTURE
     1 ADP301      1 GROUP             4 A     ADP     0 **** ADP A 301
