@<TRIPOS>MOLECULE
1uqu_UPG_1_ligand
   58    60     1     0     0
SMALL
NO_CHARGES


@<TRIPOS>ATOM
     1 N1          27.3580    21.6720    14.2570 N.pl3        1 UPG1457   0.0000
     2 C2          26.4120    21.0330    13.4430 C.2          1 UPG1457   0.0000
     3 N3          26.0620    19.6960    13.6530 N.pl3        1 UPG1457   0.0000
     4 C4          26.6750    18.9870    14.6840 C.2          1 UPG1457   0.0000
     5 C5          27.6630    19.6040    15.4670 C.2          1 UPG1457   0.0000
     6 C6          27.9970    20.9540    15.2660 C.2          1 UPG1457   0.0000
     7 O2          25.8030    21.6930    12.6100 O.2          1 UPG1457   0.0000
     8 O4          26.2030    17.8620    14.9750 O.2          1 UPG1457   0.0000
     9 C1C         27.6690    23.0500    13.9430 C.3          1 UPG1457   0.0000
    10 C2C         27.3550    23.9830    15.0540 C.3          1 UPG1457   0.0000
    11 O2C         26.0140    24.3240    15.0460 O.3          1 UPG1457   0.0000
    12 C3C         28.3010    25.1090    14.7470 C.3          1 UPG1457   0.0000
    13 C4C         29.5380    24.3870    14.2070 C.3          1 UPG1457   0.0000
    14 O4C         29.0770    23.0920    13.8260 O.3          1 UPG1457   0.0000
    15 O3C         27.8040    26.0370    13.7720 O.3          1 UPG1457   0.0000
    16 C5C         30.6040    24.2680    15.3040 C.3          1 UPG1457   0.0000
    17 O5C         31.3670    25.4630    15.2670 O.3          1 UPG1457   0.0000
    18 PA          32.0060    25.9050    16.6860 P.3          1 UPG1457   0.0000
    19 O1A         32.4510    27.2570    16.5390 O.co2        1 UPG1457   0.0000
    20 O2A         31.0330    25.7150    17.8070 O.co2        1 UPG1457  -1.0000
    21 O3A         33.1600    24.8740    16.9740 O.3          1 UPG1457   0.0000
    22 PB          34.3140    24.4170    16.0120 P.3          1 UPG1457   0.0000
    23 O1B         34.0000    23.1060    15.3700 O.co2        1 UPG1457   0.0000
    24 O2B         35.5150    24.0440    16.8510 O.co2        1 UPG1457  -1.0000
    25 O3B         35.0510    25.1290    14.8010 O.3          1 UPG1457   0.0000
    26 C1'         36.3300    25.9130    14.9100 C.3          1 UPG1457   0.0000
    27 C2'         36.9080    26.6430    16.0490 C.3          1 UPG1457   0.0000
    28 C3'         35.8320    27.5180    16.9000 C.3          1 UPG1457   0.0000
    29 C4'         35.2800    28.6630    15.9790 C.3          1 UPG1457   0.0000
    30 C5'         34.7850    27.9880    14.5090 C.3          1 UPG1457   0.0000
    31 C6'         34.6740    29.1810    13.4670 C.3          1 UPG1457   0.0000
    32 O2'         37.4510    25.6720    16.9380 O.3          1 UPG1457   0.0000
    33 O3'         36.2000    28.1830    18.2580 O.3          1 UPG1457   0.0000
    34 O4'         34.0670    29.2890    16.7030 O.3          1 UPG1457   0.0000
    35 O5'         35.8720    27.1220    14.1070 O.3          1 UPG1457   0.0000
    36 O6'         35.6520    30.2130    13.6400 O.3          1 UPG1457   0.0000
    37 H1          25.3800    19.2538    13.0704 H            1 UPG1457   0.0000
    38 H2          28.1339    19.0776    16.1749 H            1 UPG1457   0.0000
    39 H3          28.6861    21.3949    15.8411 H            1 UPG1457   0.0000
    40 H1C         27.2263    23.3366    13.0934 H            1 UPG1457   0.0000
    41 H2C         27.5955    23.5643    15.9297 H            1 UPG1457   0.0000
    42 H6          25.9021    25.2451    15.4188 H            1 UPG1457   0.0000
    43 H3C         28.5335    25.5951    15.5894 H            1 UPG1457   0.0000
    44 H4C         29.9065    24.8727    13.4144 H            1 UPG1457   0.0000
    45 H9          27.2996    26.7669    14.2333 H            1 UPG1457   0.0000
    46 H5C1        31.1922    23.4787    15.1280 H            1 UPG1457   0.0000
    47 H5C2        30.1678    24.1659    16.1980 H            1 UPG1457   0.0000
    48 H1'         37.0567    25.4379    14.4139 H            1 UPG1457   0.0000
    49 H2'         37.6399    27.2416    15.7233 H            1 UPG1457   0.0000
    50 H3'         35.0599    26.9101    17.0853 H            1 UPG1457   0.0000
    51 H4'         35.9859    29.3540    15.8234 H            1 UPG1457   0.0000
    52 H5'         33.9232    27.4888    14.5985 H            1 UPG1457   0.0000
    53 H6'1        33.7668    29.5918    13.5579 H            1 UPG1457   0.0000
    54 H6'2        34.7780    28.8030    12.5471 H            1 UPG1457   0.0000
    55 H19         36.7240    25.0581    17.2455 H            1 UPG1457   0.0000
    56 H20         35.6050    27.8239    18.9771 H            1 UPG1457   0.0000
    57 H21         33.3685    28.5886    16.8496 H            1 UPG1457   0.0000
    58 H6'         36.2025    30.2933    12.8090 H            1 UPG1457   0.0000
@<TRIPOS>BOND
     1    1    2       1
     2    1    6       1
     3    1    9       1
     4    2    3       1
     5    2    7       2
     6    3    4       1
     7    4    5       1
     8    4    8       2
     9    5    6       2
    10    9   10       1
    11    9   14       1
    12   10   11       1
    13   10   12       1
    14   12   13       1
    15   12   15       1
    16   13   14       1
    17   13   16       1
    18   16   17       1
    19   17   18       1
    20   18   19      ar
    21   18   20      ar
    22   18   21       1
    23   21   22       1
    24   22   23      ar
    25   22   24      ar
    26   22   25       1
    27   25   26       1
    28   26   27       1
    29   26   35       1
    30   27   28       1
    31   27   32       1
    32   28   29       1
    33   28   33       1
    34   29   30       1
    35   29   34       1
    36   30   31       1
    37   30   35       1
    38   31   36       1
    39    3   37       1
    40    5   38       1
    41    6   39       1
    42    9   40       1
    43   10   41       1
    44   11   42       1
    45   12   43       1
    46   13   44       1
    47   15   45       1
    48   16   46       1
    49   16   47       1
    50   36   58       1
    51   34   57       1
    52   26   48       1
    53   27   49       1
    54   28   50       1
    55   29   51       1
    56   30   52       1
    57   31   53       1
    58   31   54       1
    59   32   55       1
    60   33   56       1
@<TRIPOS>SUBSTRUCTURE
     1 UPG1457     1 GROUP             4 A     UPG     0 **** UPG A1457
