@<TRIPOS>MOLECULE
1qti_GNT_1_ligand
   43    46     1     0     0
SMALL
NO_CHARGES


@<TRIPOS>ATOM
     1 C1           2.5530    67.3160    62.6050 C.2          1 GNT600   0.0000
     2 C2           2.7290    67.7550    61.3290 C.2          1 GNT600   0.0000
     3 C3           4.0990    67.8980    60.6750 C.3          1 GNT600   0.0000
     4 C4           5.2170    68.0400    61.7620 C.3          1 GNT600   0.0000
     5 C41          5.1000    66.9120    62.8380 C.3          1 GNT600   0.0000
     6 C42          3.6940    66.9260    63.5830 C.3          1 GNT600   0.0000
     7 O5           5.2830    65.5770    62.2900 O.3          1 GNT600   0.0000
     8 C6           4.6660    63.3810    63.2290 C.ar         1 GNT600   0.0000
     9 C7           3.8040    62.6760    64.1490 C.ar         1 GNT600   0.0000
    10 C8           2.8430    63.3810    64.9370 C.ar         1 GNT600   0.0000
    11 C9           1.6820    65.5880    65.6730 C.3          1 GNT600   0.0000
    12 N10          2.2900    66.6590    66.5310 N.4          1 GNT600   1.0000
    13 C11          2.5880    67.9390    65.7790 C.3          1 GNT600   0.0000
    14 C12          3.8370    67.8410    64.8550 C.3          1 GNT600   0.0000
    15 C13          4.5190    64.7850    63.1420 C.ar         1 GNT600   0.0000
    16 C14          3.5760    65.4640    63.9210 C.ar         1 GNT600   0.0000
    17 C15          2.7100    64.7950    64.8430 C.ar         1 GNT600   0.0000
    18 C16          5.8720    61.3440    62.4200 C.3          1 GNT600   0.0000
    19 O17          5.6390    62.7660    62.4180 O.3          1 GNT600   0.0000
    20 O18          4.3410    66.7390    59.8510 O.3          1 GNT600   0.0000
    21 C19          1.3860    66.9580    67.6870 C.3          1 GNT600   0.0000
    22 H1           1.6138    67.2384    62.9394 H            1 GNT600   0.0000
    23 H2           1.9195    67.9958    60.7935 H            1 GNT600   0.0000
    24 H3           4.1006    68.7144    60.0975 H            1 GNT600   0.0000
    25 H4           5.1264    68.9295    62.2098 H            1 GNT600   0.0000
    26 H5           6.1121    67.9788    61.3203 H            1 GNT600   0.0000
    27 H6           5.8128    67.0643    63.5226 H            1 GNT600   0.0000
    28 H7           3.8807    61.6827    64.2354 H            1 GNT600   0.0000
    29 H8           2.2540    62.8725    65.5651 H            1 GNT600   0.0000
    30 H9           1.0341    66.0181    65.0443 H            1 GNT600   0.0000
    31 H10          1.1951    64.9474    66.2667 H            1 GNT600   0.0000
    32 H11          2.7437    68.6684    66.4452 H            1 GNT600   0.0000
    33 H12          1.7943    68.1667    65.2149 H            1 GNT600   0.0000
    34 H13          4.0577    68.7649    64.5423 H            1 GNT600   0.0000
    35 H14          4.5939    67.4848    65.4029 H            1 GNT600   0.0000
    36 H15          6.6028    61.1251    61.7735 H            1 GNT600   0.0000
    37 H16          6.1402    61.0515    63.3379 H            1 GNT600   0.0000
    38 H17          5.0346    60.8686    62.1501 H            1 GNT600   0.0000
    39 H18          5.2376    66.8207    59.4159 H            1 GNT600   0.0000
    40 H19          1.7960    67.6718    68.2548 H            1 GNT600   0.0000
    41 H20          0.5002    67.2718    67.3450 H            1 GNT600   0.0000
    42 H21          1.2582    66.1301    68.2331 H            1 GNT600   0.0000
    43 H22          3.1522    66.3085    66.8967 H            1 GNT600   0.0000
@<TRIPOS>BOND
     1    1    2       2
     2    1    6       1
     3    2    3       1
     4    3    4       1
     5    3   20       1
     6    4    5       1
     7    5    6       1
     8    5    7       1
     9    6   14       1
    10    6   16       1
    11    7   15       1
    12    8    9      ar
    13    8   15      ar
    14    8   19       1
    15    9   10      ar
    16   10   17      ar
    17   11   12       1
    18   11   17       1
    19   12   13       1
    20   12   21       1
    21   13   14       1
    22   15   16      ar
    23   16   17      ar
    24   18   19       1
    25    1   22       1
    26    2   23       1
    27    3   24       1
    28    4   25       1
    29    4   26       1
    30    5   27       1
    31    9   28       1
    32   10   29       1
    33   11   30       1
    34   11   31       1
    35   13   32       1
    36   13   33       1
    37   14   34       1
    38   14   35       1
    39   18   36       1
    40   18   37       1
    41   18   38       1
    42   20   39       1
    43   21   40       1
    44   21   41       1
    45   21   42       1
    46   12   43       1
@<TRIPOS>SUBSTRUCTURE
     1 GNT600      1 GROUP             4 A     GNT     0 **** GNT A 600
