@<TRIPOS>MOLECULE
1i7l_ATP_1_ligand
   43    45     1     0     0
SMALL
NO_CHARGES


@<TRIPOS>ATOM
     1 PG          20.2830    61.1680    14.8760 P.3          1 ATP800   0.0000
     2 O1G         19.7610    61.0580    16.2670 O.co2        1 ATP800   0.0000
     3 O2G         19.2810    60.9350    13.8100 O.co2        1 ATP800  -1.0000
     4 O3G         21.1960    62.3550    14.6610 O.co2        1 ATP800  -1.0000
     5 PB          22.4150    59.2850    15.6480 P.3          1 ATP800   0.0000
     6 O1B         21.8370    58.2490    16.5720 O.co2        1 ATP800   0.0000
     7 O2B         23.1200    60.4440    16.2440 O.co2        1 ATP800  -1.0000
     8 O3B         21.1960    59.8440    14.7190 O.3          1 ATP800   0.0000
     9 PA          24.6750    57.7050    14.5110 P.3          1 ATP800   0.0000
    10 O1A         25.4570    58.2410    13.3760 O.co2        1 ATP800   0.0000
    11 O2A         25.2890    57.6070    15.8510 O.co2        1 ATP800  -1.0000
    12 O3A         23.2850    58.5120    14.5790 O.3          1 ATP800   0.0000
    13 O5'         24.1830    56.2890    14.0960 O.3          1 ATP800   0.0000
    14 C5'         23.1180    56.0670    13.1340 C.3          1 ATP800   0.0000
    15 C4'         22.3170    54.8350    13.5190 C.3          1 ATP800   0.0000
    16 O4'         23.2220    53.6990    13.3580 O.3          1 ATP800   0.0000
    17 C3'         21.8520    54.8070    14.9680 C.3          1 ATP800   0.0000
    18 O3'         20.4440    54.5370    15.1040 O.3          1 ATP800   0.0000
    19 C2'         22.7090    53.7840    15.6070 C.3          1 ATP800   0.0000
    20 O2'         22.0670    53.0330    16.6060 O.3          1 ATP800   0.0000
    21 C1'         23.0860    52.8210    14.4590 C.3          1 ATP800   0.0000
    22 N9          24.3700    52.1740    14.6770 N.pl3        1 ATP800   0.0000
    23 C8          25.5580    52.7510    14.9610 C.2          1 ATP800   0.0000
    24 N7          26.5600    51.9280    15.1170 N.2          1 ATP800   0.0000
    25 C5          25.9760    50.7140    14.9150 C.ar         1 ATP800   0.0000
    26 C6          26.4920    49.4150    14.9420 C.ar         1 ATP800   0.0000
    27 N6          27.7630    49.2030    15.2040 N.pl3        1 ATP800   0.0000
    28 N1          25.6640    48.3870    14.6960 N.ar         1 ATP800   0.0000
    29 C2          24.3690    48.6220    14.4340 C.ar         1 ATP800   0.0000
    30 N3          23.7330    49.8140    14.3810 N.ar         1 ATP800   0.0000
    31 C4          24.6240    50.8420    14.6380 C.ar         1 ATP800   0.0000
    32 H5'1        23.5148    55.9333    12.2259 H            1 ATP800   0.0000
    33 H5'2        22.5136    56.8636    13.1197 H            1 ATP800   0.0000
    34 H4'         21.5321    54.7344    12.9075 H            1 ATP800   0.0000
    35 H3'         22.0491    55.6946    15.3843 H            1 ATP800   0.0000
    36 H5          20.3148    53.7022    15.6392 H            1 ATP800   0.0000
    37 H2'         23.5330    54.2121    15.9781 H            1 ATP800   0.0000
    38 H7          22.0781    52.0652    16.3544 H            1 ATP800   0.0000
    39 H1'         22.3638    52.1481    14.2987 H            1 ATP800   0.0000
    40 H9          25.6631    53.7418    15.0461 H            1 ATP800   0.0000
    41 H10         28.1211    48.2695    15.2207 H            1 ATP800   0.0000
    42 H11         28.3715    49.9753    15.3866 H            1 ATP800   0.0000
    43 H12         23.8046    47.8159    14.2560 H            1 ATP800   0.0000
@<TRIPOS>BOND
     1    1    2      ar
     2    1    3      ar
     3    1    4      ar
     4    1    8       1
     5    5    6      ar
     6    5    7      ar
     7    5    8       1
     8    5   12       1
     9    9   10      ar
    10    9   11      ar
    11    9   12       1
    12    9   13       1
    13   13   14       1
    14   14   15       1
    15   15   16       1
    16   15   17       1
    17   16   21       1
    18   17   18       1
    19   17   19       1
    20   19   20       1
    21   19   21       1
    22   21   22       1
    23   22   23       1
    24   22   31       1
    25   23   24       2
    26   24   25       1
    27   25   26      ar
    28   25   31      ar
    29   26   27       1
    30   26   28      ar
    31   28   29      ar
    32   29   30      ar
    33   30   31      ar
    34   29   43       1
    35   27   42       1
    36   27   41       1
    37   23   40       1
    38   14   32       1
    39   14   33       1
    40   15   34       1
    41   17   35       1
    42   18   36       1
    43   19   37       1
    44   20   38       1
    45   21   39       1
@<TRIPOS>SUBSTRUCTURE
     1 ATP800      1 GROUP             4 A     ATP     0 **** ATP A 800
