@<TRIPOS>MOLECULE
2f5z_FAD_6_ligand
   84    89     1     0     0
SMALL
NO_CHARGES


@<TRIPOS>ATOM
     1 PA         155.2170    20.4470     0.1010 P.3          1 FAD480   0.0000
     2 O1A        154.5060    19.4950    -0.8370 O.co2        1 FAD480   0.0000
     3 O2A        154.5300    21.7070     0.5460 O.co2        1 FAD480  -1.0000
     4 O5B        155.6390    19.6800     1.3910 O.3          1 FAD480   0.0000
     5 C5B        156.3040    18.4550     1.5680 C.3          1 FAD480   0.0000
     6 C4B        155.9520    17.8650     2.9980 C.3          1 FAD480   0.0000
     7 O4B        156.8570    18.2910     4.0250 O.3          1 FAD480   0.0000
     8 C3B        154.5400    18.1710     3.5850 C.3          1 FAD480   0.0000
     9 O3B        153.7670    17.0080     3.5120 O.3          1 FAD480   0.0000
    10 C2B        154.8330    18.6320     5.0070 C.3          1 FAD480   0.0000
    11 O2B        153.8800    18.3200     5.9850 O.3          1 FAD480   0.0000
    12 C1B        156.1960    18.0020     5.2470 C.3          1 FAD480   0.0000
    13 N9A        157.0210    18.5400     6.3340 N.pl3        1 FAD480   0.0000
    14 C8A        157.3570    19.8460     6.5700 C.2          1 FAD480   0.0000
    15 N7A        158.1410    19.9740     7.6390 N.2          1 FAD480   0.0000
    16 C5A        158.3170    18.6840     8.1170 C.ar         1 FAD480   0.0000
    17 C6A        159.0550    18.1600     9.2170 C.ar         1 FAD480   0.0000
    18 N6A        159.7670    18.9000    10.0370 N.pl3        1 FAD480   0.0000
    19 N1A        159.0190    16.7950     9.4220 N.ar         1 FAD480   0.0000
    20 C2A        158.2890    15.9860     8.5760 C.ar         1 FAD480   0.0000
    21 N3A        157.5750    16.4190     7.5100 N.ar         1 FAD480   0.0000
    22 C4A        157.6210    17.7830     7.3220 C.ar         1 FAD480   0.0000
    23 N1         151.8870    23.5680    -8.2420 N.2          1 FAD480   0.0000
    24 C2         151.8700    23.1330    -9.5600 C.2          1 FAD480   0.0000
    25 O2         152.8970    22.8290   -10.1600 O.2          1 FAD480   0.0000
    26 N3         150.6260    23.0440   -10.2070 N.pl3        1 FAD480   0.0000
    27 C4         149.4150    23.3640    -9.6210 C.2          1 FAD480   0.0000
    28 O4         148.3660    23.2520   -10.2610 O.2          1 FAD480   0.0000
    29 C4X        149.4290    23.7990    -8.2870 C.2          1 FAD480   0.0000
    30 N5         148.2400    24.1200    -7.6430 N.2          1 FAD480   0.0000
    31 C5X        148.2270    24.5070    -6.3090 C.ar         1 FAD480   0.0000
    32 C6         147.0110    24.8040    -5.6710 C.ar         1 FAD480   0.0000
    33 C7         146.9470    25.1710    -4.3080 C.ar         1 FAD480   0.0000
    34 C7M        145.6000    25.4680    -3.6820 C.3          1 FAD480   0.0000
    35 C8         148.1960    25.2380    -3.5550 C.ar         1 FAD480   0.0000
    36 C8M        148.2300    25.5960    -2.0950 C.3          1 FAD480   0.0000
    37 C9         149.4380    24.9590    -4.1970 C.ar         1 FAD480   0.0000
    38 C9A        149.4820    24.5930    -5.5730 C.ar         1 FAD480   0.0000
    39 N10        150.7080    24.2970    -6.2570 N.pl3        1 FAD480   0.0000
    40 C10        150.6880    23.8880    -7.6140 C.2          1 FAD480   0.0000
    41 C1'        152.0240    24.3940    -5.5520 C.3          1 FAD480   0.0000
    42 C2'        152.5790    23.0300    -5.1960 C.3          1 FAD480   0.0000
    43 O2'        151.6760    22.4190    -4.3120 O.3          1 FAD480   0.0000
    44 C3'        153.9550    23.1730    -4.5150 C.3          1 FAD480   0.0000
    45 O3'        154.8860    23.8360    -5.3920 O.3          1 FAD480   0.0000
    46 C4'        154.5950    21.8130    -4.1800 C.3          1 FAD480   0.0000
    47 O4'        153.7140    20.9690    -3.4330 O.3          1 FAD480   0.0000
    48 C5'        155.8710    21.9920    -3.4220 C.3          1 FAD480   0.0000
    49 O5'        156.3790    20.6690    -3.1990 O.3          1 FAD480   0.0000
    50 P          157.3800    20.3490    -2.0120 P.3          1 FAD480   0.0000
    51 O1P        157.6290    18.8680    -2.1430 O.co2        1 FAD480   0.0000
    52 O2P        158.5970    21.1840    -2.0660 O.co2        1 FAD480  -1.0000
    53 O3P        156.6540    20.7840    -0.6780 O.3          1 FAD480   0.0000
    54 H5B1       157.2913    18.5987     1.5004 H            1 FAD480   0.0000
    55 H5B2       156.0116    17.8115     0.8606 H            1 FAD480   0.0000
    56 H4B        156.0320    16.8704     2.9318 H            1 FAD480   0.0000
    57 H3B        154.1041    18.9072     3.0673 H            1 FAD480   0.0000
    58 H5         154.2063    16.2820     4.0411 H            1 FAD480   0.0000
    59 H2B        154.9489    19.6252     4.9930 H            1 FAD480   0.0000
    60 H7         153.7723    17.3274     6.0408 H            1 FAD480   0.0000
    61 H1B        156.0980    17.0125     5.3536 H            1 FAD480   0.0000
    62 H8A        157.0501    20.6130     6.0065 H            1 FAD480   0.0000
    63 H6A1       160.2641    18.4728    10.7923 H            1 FAD480   0.0000
    64 H6A2       159.8117    19.8903     9.9057 H            1 FAD480   0.0000
    65 H2A        158.2870    15.0039     8.7645 H            1 FAD480   0.0000
    66 H13        150.6156    22.7278   -11.1556 H            1 FAD480   0.0000
    67 H14        146.1631    24.7540    -6.1988 H            1 FAD480   0.0000
    68 H7M1       145.7257    25.7104    -2.7200 H            1 FAD480   0.0000
    69 H7M2       145.1691    26.2307    -4.1644 H            1 FAD480   0.0000
    70 H7M3       145.0159    24.6590    -3.7484 H            1 FAD480   0.0000
    71 H8M1       149.1761    25.5857    -1.7712 H            1 FAD480   0.0000
    72 H8M2       147.8437    26.5094    -1.9667 H            1 FAD480   0.0000
    73 H8M3       147.6929    24.9310    -1.5761 H            1 FAD480   0.0000
    74 H21        150.2887    25.0210    -3.6750 H            1 FAD480   0.0000
    75 H1'1       151.9020    24.9222    -4.7117 H            1 FAD480   0.0000
    76 H1'2       152.6760    24.8622    -6.1484 H            1 FAD480   0.0000
    77 H2'        152.6682    22.4757    -6.0235 H            1 FAD480   0.0000
    78 H25        152.1733    21.8047    -3.6993 H            1 FAD480   0.0000
    79 H3'        153.8544    23.7067    -3.6754 H            1 FAD480   0.0000
    80 H27        155.5512    24.3467    -4.8473 H            1 FAD480   0.0000
    81 H4'        154.8090    21.3516    -5.0410 H            1 FAD480   0.0000
    82 H29        154.1328    20.7460    -2.5527 H            1 FAD480   0.0000
    83 H5'1       155.6974    22.4503    -2.5503 H            1 FAD480   0.0000
    84 H5'2       156.5221    22.5298    -3.9575 H            1 FAD480   0.0000
@<TRIPOS>BOND
     1    1    2      ar
     2    1    3      ar
     3    1    4       1
     4    1   53       1
     5    4    5       1
     6    5    6       1
     7    6    7       1
     8    6    8       1
     9    7   12       1
    10    8    9       1
    11    8   10       1
    12   10   11       1
    13   10   12       1
    14   12   13       1
    15   13   14       1
    16   13   22       1
    17   14   15       2
    18   15   16       1
    19   16   17      ar
    20   16   22      ar
    21   17   18       1
    22   17   19      ar
    23   19   20      ar
    24   20   21      ar
    25   21   22      ar
    26   23   24       1
    27   23   40       2
    28   24   25       2
    29   24   26       1
    30   26   27       1
    31   27   28       2
    32   27   29       1
    33   29   30       2
    34   29   40       1
    35   30   31       1
    36   31   32      ar
    37   31   38      ar
    38   32   33      ar
    39   33   34       1
    40   33   35      ar
    41   35   36       1
    42   35   37      ar
    43   37   38      ar
    44   38   39       1
    45   39   40       1
    46   39   41       1
    47   41   42       1
    48   42   43       1
    49   42   44       1
    50   44   45       1
    51   44   46       1
    52   46   47       1
    53   46   48       1
    54   48   49       1
    55   49   50       1
    56   50   51      ar
    57   50   52      ar
    58   50   53       1
    59   48   84       1
    60    5   54       1
    61    5   55       1
    62    6   56       1
    63    8   57       1
    64    9   58       1
    65   10   59       1
    66   11   60       1
    67   12   61       1
    68   14   62       1
    69   18   63       1
    70   18   64       1
    71   20   65       1
    72   26   66       1
    73   32   67       1
    74   34   68       1
    75   34   69       1
    76   34   70       1
    77   36   71       1
    78   36   72       1
    79   36   73       1
    80   37   74       1
    81   41   75       1
    82   41   76       1
    83   42   77       1
    84   43   78       1
    85   44   79       1
    86   45   80       1
    87   46   81       1
    88   47   82       1
    89   48   83       1
@<TRIPOS>SUBSTRUCTURE
     1 FAD480      1 GROUP             4 F     FAD     0 **** FAD F 480
