@<TRIPOS>MOLECULE
2y7f_KMH_2_ligand
   21    20     1     0     0
SMALL
NO_CHARGES


@<TRIPOS>ATOM
     1 N           30.0440   -37.3370    15.1750 N.4          1 KMH1276   1.0000
     2 CB          28.6800   -37.7770    14.8350 C.3          1 KMH1276   0.0000
     3 CG          28.2570   -37.1730    13.5000 C.3          1 KMH1276   0.0000
     4 CE          28.3100   -42.4060    16.6900 C.2          1 KMH1276   0.0000
     5 OF1         27.9460   -43.5170    16.2320 O.co2        1 KMH1276   0.0000
     6 OF2         29.2090   -42.2240    17.5340 O.co2        1 KMH1276  -1.0000
     7 CA          28.7050   -39.2940    14.7040 C.3          1 KMH1276   0.0000
     8 C           28.5790   -39.9480    16.0700 C.2          1 KMH1276   0.0000
     9 C2          27.6100   -41.1550    16.1570 C.3          1 KMH1276   0.0000
    10 O           29.2160   -39.5070    17.0460 O.2          1 KMH1276   0.0000
    11 H1          30.1427   -37.2954    16.1692 H            1 KMH1276   0.0000
    12 H2          30.7065   -37.9860    14.8011 H            1 KMH1276   0.0000
    13 HB          28.0410   -37.5041    15.5542 H            1 KMH1276   0.0000
    14 HG1         27.3307   -37.4758    13.2757 H            1 KMH1276   0.0000
    15 HG2         28.2750   -36.1753    13.5649 H            1 KMH1276   0.0000
    16 HG3         28.8879   -37.4719    12.7840 H            1 KMH1276   0.0000
    17 HA1         29.5680   -39.5739    14.2834 H            1 KMH1276   0.0000
    18 HA2         27.9426   -39.5872    14.1271 H            1 KMH1276   0.0000
    19 H9          26.8548   -40.9207    16.7692 H            1 KMH1276   0.0000
    20 H10         27.2511   -41.3488    15.2440 H            1 KMH1276   0.0000
    21 H11         30.2088   -36.4308    14.7855 H            1 KMH1276   0.0000
@<TRIPOS>BOND
     1    1    2       1
     2    2    3       1
     3    2    7       1
     4    4    5      ar
     5    4    6      ar
     6    4    9       1
     7    7    8       1
     8    8    9       1
     9    8   10       2
    10    1   11       1
    11    1   12       1
    12    2   13       1
    13    3   14       1
    14    3   15       1
    15    3   16       1
    16    1   21       1
    17    7   17       1
    18    7   18       1
    19    9   19       1
    20    9   20       1
@<TRIPOS>SUBSTRUCTURE
     1 KMH1276     1 GROUP             4 B     KMH     0 **** KMH B1276
