@<TRIPOS>MOLECULE
4hkf_ACO_1_ligand
   85    87     1     0     0
SMALL
NO_CHARGES


@<TRIPOS>ATOM
     1 N1A         23.7390    28.3360     3.2300 N.ar         1 ACO201   0.0000
     2 C2A         24.6150    28.1750     2.1690 C.ar         1 ACO201   0.0000
     3 N3A         25.0860    26.8910     1.9260 N.ar         1 ACO201   0.0000
     4 C4A         24.6780    25.8680     2.7050 C.ar         1 ACO201   0.0000
     5 C5A         23.8350    26.0570     3.7350 C.ar         1 ACO201   0.0000
     6 C6A         23.3700    27.2930     3.9870 C.ar         1 ACO201   0.0000
     7 N6A         22.5310    27.4660     5.0210 N.pl3        1 ACO201   0.0000
     8 N7A         23.6350    24.8700     4.3180 N.2          1 ACO201   0.0000
     9 C8A         24.3550    23.9630     3.6580 C.2          1 ACO201   0.0000
    10 N9A         25.0080    24.5830     2.6680 N.pl3        1 ACO201   0.0000
    11 C1B         25.9310    24.0230     1.6330 C.3          1 ACO201   0.0000
    12 C2B         27.3690    24.3780     1.9770 C.3          1 ACO201   0.0000
    13 O2B         28.1700    24.4110     0.7730 O.3          1 ACO201   0.0000
    14 C3B         27.7530    23.2250     2.8550 C.3          1 ACO201   0.0000
    15 O3B         29.2060    23.1300     2.9270 O.3          1 ACO201   0.0000
    16 P3B         29.9950    24.1060     3.9380 P.3          1 ACO201   0.0000
    17 O7A         29.2650    24.0160     5.2230 O.co2        1 ACO201   0.0000
    18 O8A         29.9210    25.4620     3.3700 O.co2        1 ACO201  -1.0000
    19 O9A         31.3220    23.5090     3.9710 O.co2        1 ACO201  -1.0000
    20 C4B         27.1380    22.0700     2.0710 C.3          1 ACO201   0.0000
    21 O4B         25.8250    22.5690     1.6950 O.3          1 ACO201   0.0000
    22 C5B         26.9430    20.8090     2.9350 C.3          1 ACO201   0.0000
    23 O5B         26.1950    21.1310     4.1070 O.3          1 ACO201   0.0000
    24 P1A         25.9470    20.0880     5.2870 P.3          1 ACO201   0.0000
    25 O1A         26.2420    18.7170     4.8520 O.co2        1 ACO201   0.0000
    26 O2A         26.6180    20.5830     6.5060 O.co2        1 ACO201  -1.0000
    27 O3A         24.3370    20.2700     5.4390 O.3          1 ACO201   0.0000
    28 P2A         23.4810    20.2880     6.8180 P.3          1 ACO201   0.0000
    29 O4A         23.9000    19.1920     7.6970 O.co2        1 ACO201   0.0000
    30 O5A         23.4950    21.6550     7.3630 O.co2        1 ACO201  -1.0000
    31 O6A         22.0160    19.9050     6.2460 O.3          1 ACO201   0.0000
    32 CBP         19.8730    20.7090     5.3690 C.3          1 ACO201   0.0000
    33 CCP         21.3870    20.5760     5.1240 C.3          1 ACO201   0.0000
    34 CDP         19.3150    19.3300     5.7830 C.3          1 ACO201   0.0000
    35 CEP         19.1880    21.1730     4.0560 C.3          1 ACO201   0.0000
    36 CAP         19.6780    21.7490     6.5110 C.3          1 ACO201   0.0000
    37 OAP         20.0450    23.0600     6.0380 O.3          1 ACO201   0.0000
    38 C9P         18.2690    21.7840     7.1280 C.2          1 ACO201   0.0000
    39 O9P         17.9080    20.9170     7.9290 O.2          1 ACO201   0.0000
    40 N8P         17.5050    22.8370     6.7680 N.am         1 ACO201   0.0000
    41 C7P         16.1610    23.0660     7.3320 C.3          1 ACO201   0.0000
    42 C6P         15.1510    22.0610     6.7720 C.3          1 ACO201   0.0000
    43 C5P         15.0060    22.2260     5.2650 C.2          1 ACO201   0.0000
    44 O5P         14.9260    23.3410     4.7300 O.2          1 ACO201   0.0000
    45 N4P         14.9740    21.0690     4.6020 N.am         1 ACO201   0.0000
    46 C3P         14.7530    20.9940     3.1480 C.3          1 ACO201   0.0000
    47 C2P         13.2360    20.9360     2.9780 C.3          1 ACO201   0.0000
    48 S1P         12.6520    20.8060     1.2590 S.3          1 ACO201   0.0000
    49 C           12.8900    19.1130     0.8790 C.2          1 ACO201   0.0000
    50 O           13.2450    18.2670     1.6980 O.2          1 ACO201   0.0000
    51 CH3         12.6250    18.7380    -0.5840 C.3          1 ACO201   0.0000
    52 H2A         24.8961    28.9496     1.6025 H            1 ACO201   0.0000
    53 H6A1        22.2600    26.6833     5.5814 H            1 ACO201   0.0000
    54 H6A2        22.1771    28.3775     5.2307 H            1 ACO201   0.0000
    55 H8A         24.3996    22.9861     3.8669 H            1 ACO201   0.0000
    56 H1B         25.6899    24.3587     0.7224 H            1 ACO201   0.0000
    57 H2B         27.4210    25.2452     2.4722 H            1 ACO201   0.0000
    58 H7          29.1137    24.6449     1.0068 H            1 ACO201   0.0000
    59 H3B         27.3463    23.3069     3.7649 H            1 ACO201   0.0000
    60 H4B         27.6839    21.8624     1.2593 H            1 ACO201   0.0000
    61 H5B1        27.8370    20.4486     3.2014 H            1 ACO201   0.0000
    62 H5B2        26.4493    20.1185     2.4064 H            1 ACO201   0.0000
    63 HCP1        21.5420    20.0443     4.2914 H            1 ACO201   0.0000
    64 HCP2        21.7861    21.4867     5.0171 H            1 ACO201   0.0000
    65 HDP1        18.3310    19.4036     5.9451 H            1 ACO201   0.0000
    66 HDP2        19.4838    18.6689     5.0519 H            1 ACO201   0.0000
    67 HDP3        19.7688    19.0244     6.6201 H            1 ACO201   0.0000
    68 HEP1        18.2035    21.2618     4.2070 H            1 ACO201   0.0000
    69 HEP2        19.5638    22.0572     3.7784 H            1 ACO201   0.0000
    70 HEP3        19.3554    20.4990     3.3365 H            1 ACO201   0.0000
    71 HAP         20.3159    21.5087     7.2426 H            1 ACO201   0.0000
    72 H21         21.0169    23.2174     6.2128 H            1 ACO201   0.0000
    73 H8P         17.8626    23.4848     6.0953 H            1 ACO201   0.0000
    74 H7P1        15.8630    23.9921     7.1007 H            1 ACO201   0.0000
    75 H7P2        16.2028    22.9678     8.3263 H            1 ACO201   0.0000
    76 H6P1        14.2627    22.2121     7.2057 H            1 ACO201   0.0000
    77 H6P2        15.4660    21.1332     6.9718 H            1 ACO201   0.0000
    78 H4P         15.1052    20.2191     5.1124 H            1 ACO201   0.0000
    79 H3P1        15.1802    20.1727     2.7700 H            1 ACO201   0.0000
    80 H3P2        15.1264    21.8030     2.6940 H            1 ACO201   0.0000
    81 H2P1        12.8484    21.7684     3.3741 H            1 ACO201   0.0000
    82 H2P2        12.8988    20.1397     3.4801 H            1 ACO201   0.0000
    83 HH31        12.7840    17.7589    -0.7112 H            1 ACO201   0.0000
    84 HH32        11.6771    18.9549    -0.8173 H            1 ACO201   0.0000
    85 HH33        13.2411    19.2556    -1.1777 H            1 ACO201   0.0000
@<TRIPOS>BOND
     1    1    2      ar
     2    1    6      ar
     3    2    3      ar
     4    3    4      ar
     5    4    5      ar
     6    4   10       1
     7    5    6      ar
     8    5    8       1
     9    6    7       1
    10    8    9       2
    11    9   10       1
    12   10   11       1
    13   11   12       1
    14   11   21       1
    15   12   13       1
    16   12   14       1
    17   14   15       1
    18   14   20       1
    19   15   16       1
    20   16   17      ar
    21   16   18      ar
    22   16   19      ar
    23   20   21       1
    24   20   22       1
    25   22   23       1
    26   23   24       1
    27   24   25      ar
    28   24   26      ar
    29   24   27       1
    30   27   28       1
    31   28   29      ar
    32   28   30      ar
    33   28   31       1
    34   31   33       1
    35   32   33       1
    36   32   34       1
    37   32   35       1
    38   32   36       1
    39   36   37       1
    40   36   38       1
    41   38   39       2
    42   38   40      am
    43   40   41       1
    44   41   42       1
    45   42   43       1
    46   43   44       2
    47   43   45      am
    48   45   46       1
    49   46   47       1
    50   47   48       1
    51   48   49       1
    52   49   50       2
    53   49   51       1
    54    2   52       1
    55    7   53       1
    56    7   54       1
    57    9   55       1
    58   11   56       1
    59   12   57       1
    60   13   58       1
    61   14   59       1
    62   51   85       1
    63   51   84       1
    64   20   60       1
    65   22   61       1
    66   22   62       1
    67   51   83       1
    68   47   82       1
    69   33   63       1
    70   33   64       1
    71   34   65       1
    72   34   66       1
    73   34   67       1
    74   35   68       1
    75   35   69       1
    76   35   70       1
    77   36   71       1
    78   37   72       1
    79   40   73       1
    80   41   74       1
    81   41   75       1
    82   42   76       1
    83   42   77       1
    84   45   78       1
    85   46   79       1
    86   46   80       1
    87   47   81       1
@<TRIPOS>SUBSTRUCTURE
     1 ACO201      1 GROUP             4 A     ACO     0 **** ACO A 201
