@<TRIPOS>MOLECULE
5aya_X8Z_1_ligand
   27    27     1     0     0
SMALL
NO_CHARGES


@<TRIPOS>ATOM
     1 O1         -30.4610     8.0730     2.2900 O.2          1 X8Z307   0.0000
     2 C4         -30.4100     8.7500     1.2660 C.2          1 X8Z307   0.0000
     3 C2         -30.9110     8.1650    -0.0300 C.3          1 X8Z307   0.0000
     4 C1         -30.7560     6.6640     0.0740 C.3          1 X8Z307   0.0000
     5 S          -30.9180     5.8600    -1.5220 S.3          1 X8Z307  -1.0000
     6 C3         -32.3480     8.5780    -0.3630 C.3          1 X8Z307   0.0000
     7 N          -29.8760     9.9800     1.1910 N.am         1 X8Z307   0.0000
     8 C8         -29.1820    10.5940     2.3280 C.3          1 X8Z307   0.0000
     9 C9         -30.0590    10.7830     3.5160 C.2          1 X8Z307   0.0000
    10 O3         -31.3270    11.1250     3.3210 O.co2        1 X8Z307   0.0000
    11 O2         -29.6050    10.7000     4.6490 O.co2        1 X8Z307  -1.0000
    12 C5         -29.8790    10.8520     0.0080 C.3          1 X8Z307   0.0000
    13 C6         -29.0860    12.0970     0.3880 C.3          1 X8Z307   0.0000
    14 C7         -28.7310    11.9740     1.8580 C.3          1 X8Z307   0.0000
    15 H1         -30.3167     8.4880    -0.7665 H            1 X8Z307   0.0000
    16 H2         -31.4608     6.3083     0.6878 H            1 X8Z307   0.0000
    17 H3         -29.8523     6.4579     0.4492 H            1 X8Z307   0.0000
    18 H4         -32.6224     8.1609    -1.2294 H            1 X8Z307   0.0000
    19 H5         -32.9607     8.2691     0.3645 H            1 X8Z307   0.0000
    20 H6         -32.3990     9.5736    -0.4415 H            1 X8Z307   0.0000
    21 H7         -28.3857    10.0431     2.5777 H            1 X8Z307   0.0000
    22 H8         -30.8164    11.1003    -0.2361 H            1 X8Z307   0.0000
    23 H9         -29.4452    10.3882    -0.7645 H            1 X8Z307   0.0000
    24 H10        -29.6406    12.9153     0.2371 H            1 X8Z307   0.0000
    25 H11        -28.2526    12.1531    -0.1619 H            1 X8Z307   0.0000
    26 H12        -27.7430    12.0694     1.9793 H            1 X8Z307   0.0000
    27 H13        -29.2013    12.6835     2.3828 H            1 X8Z307   0.0000
@<TRIPOS>BOND
     1    1    2       2
     2    2    3       1
     3    2    7      am
     4    3    4       1
     5    3    6       1
     6    4    5       1
     7    7    8       1
     8    7   12       1
     9    8    9       1
    10    8   14       1
    11    9   10      ar
    12    9   11      ar
    13   12   13       1
    14   13   14       1
    15    3   15       1
    16    4   16       1
    17    4   17       1
    18   14   26       1
    19    6   18       1
    20    6   19       1
    21    6   20       1
    22    8   21       1
    23   14   27       1
    24   12   22       1
    25   12   23       1
    26   13   24       1
    27   13   25       1
@<TRIPOS>SUBSTRUCTURE
     1 X8Z307      1 GROUP             4 A     X8Z     0 **** X8Z A 307
