@<TRIPOS>MOLECULE
4h3q_ANP_1_ligand
   44    46     1     0     0
SMALL
NO_CHARGES


@<TRIPOS>ATOM
     1 PG          -1.9340    -3.9240     8.9200 P.3          1 ANP401   0.0000
     2 O1G         -1.0400    -4.7930     8.0620 O.co2        1 ANP401   0.0000
     3 O2G         -1.1460    -2.6660     9.4940 O.co2        1 ANP401  -1.0000
     4 O3G         -2.5640    -4.8010    10.1340 O.co2        1 ANP401  -1.0000
     5 PB          -2.7500    -2.8380     6.4300 P.3          1 ANP401   0.0000
     6 O1B         -4.2360    -2.6370     5.8820 O.co2        1 ANP401   0.0000
     7 O2B         -1.7430    -3.6940     5.5490 O.co2        1 ANP401  -1.0000
     8 N3B         -3.2240    -3.3600     8.0380 N.3          1 ANP401   0.0000
     9 PA          -2.7390    -0.4310     7.9730 P.3          1 ANP401   0.0000
    10 O1A         -2.8060    -1.1090     9.3660 O.co2        1 ANP401   0.0000
    11 O2A         -4.0990     0.1490     7.7330 O.co2        1 ANP401  -1.0000
    12 O3A         -2.3690    -1.3160     6.7180 O.3          1 ANP401   0.0000
    13 O5'         -1.7080     0.7420     7.9500 O.3          1 ANP401   0.0000
    14 C5'         -0.3140     0.6200     8.1320 C.3          1 ANP401   0.0000
    15 C4'          0.3040     1.7110     8.9010 C.3          1 ANP401   0.0000
    16 O4'          0.1580     2.9490     8.2750 O.3          1 ANP401   0.0000
    17 C3'         -0.4370     1.8730    10.1780 C.3          1 ANP401   0.0000
    18 O3'         -0.1450     0.9450    11.1750 O.3          1 ANP401   0.0000
    19 C2'         -0.2730     3.2490    10.5360 C.3          1 ANP401   0.0000
    20 O2'          0.8570     3.5500    11.2510 O.3          1 ANP401   0.0000
    21 C1'         -0.2030     3.9260     9.2510 C.3          1 ANP401   0.0000
    22 N9          -1.5080     4.5400     8.9760 N.pl3        1 ANP401   0.0000
    23 C8          -2.5910     3.8670     8.5320 C.2          1 ANP401   0.0000
    24 N7          -3.5980     4.7220     8.4020 N.2          1 ANP401   0.0000
    25 C5          -3.1670     5.9560     8.7730 C.ar         1 ANP401   0.0000
    26 C6          -3.7750     7.2160     8.8440 C.ar         1 ANP401   0.0000
    27 N6          -5.1670     7.3700     8.4640 N.pl3        1 ANP401   0.0000
    28 N1          -3.0560     8.2690     9.2570 N.ar         1 ANP401   0.0000
    29 C2          -1.7660     8.1380     9.6120 C.ar         1 ANP401   0.0000
    30 N3          -1.1420     6.9540     9.5660 N.ar         1 ANP401   0.0000
    31 C4          -1.8250     5.8500     9.1490 C.ar         1 ANP401   0.0000
    32 H3B         -3.6305    -2.5848     8.5215 H            1 ANP401   0.0000
    33 H5'1         0.1165     0.5922     7.2299 H            1 ANP401   0.0000
    34 H5'2        -0.1367    -0.2389     8.6125 H            1 ANP401   0.0000
    35 H4'          1.2691     1.5162     9.0759 H            1 ANP401   0.0000
    36 H3'         -1.4052     1.7535     9.9580 H            1 ANP401   0.0000
    37 H6          -0.9530     0.8053    11.7474 H            1 ANP401   0.0000
    38 H2'         -1.0796     3.5632    11.0366 H            1 ANP401   0.0000
    39 H8           0.8549     3.0369    12.1093 H            1 ANP401   0.0000
    40 H1'          0.4992     4.6371     9.2866 H            1 ANP401   0.0000
    41 H10         -2.6283     2.8875     8.3340 H            1 ANP401   0.0000
    42 H11         -5.6025     8.2688     8.5141 H            1 ANP401   0.0000
    43 H12         -5.6908     6.5773     8.1520 H            1 ANP401   0.0000
    44 H13         -1.2600     8.9445     9.9179 H            1 ANP401   0.0000
@<TRIPOS>BOND
     1    1    2      ar
     2    1    3      ar
     3    1    4      ar
     4    1    8       1
     5    5    6      ar
     6    5    7      ar
     7    5    8       1
     8    5   12       1
     9    9   10      ar
    10    9   11      ar
    11    9   12       1
    12    9   13       1
    13   13   14       1
    14   14   15       1
    15   15   16       1
    16   15   17       1
    17   16   21       1
    18   17   18       1
    19   17   19       1
    20   19   20       1
    21   19   21       1
    22   21   22       1
    23   22   23       1
    24   22   31       1
    25   23   24       2
    26   24   25       1
    27   25   26      ar
    28   25   31      ar
    29   26   27       1
    30   26   28      ar
    31   28   29      ar
    32   29   30      ar
    33   30   31      ar
    34   29   44       1
    35   27   43       1
    36   27   42       1
    37    8   32       1
    38   23   41       1
    39   14   33       1
    40   14   34       1
    41   15   35       1
    42   17   36       1
    43   18   37       1
    44   19   38       1
    45   20   39       1
    46   21   40       1
@<TRIPOS>SUBSTRUCTURE
     1 ANP401      1 GROUP             4 A     ANP     0 **** ANP A 401
