@<TRIPOS>MOLECULE
3hwr_NDP_2_ligand
   73    77     1     0     0
SMALL
NO_CHARGES


@<TRIPOS>ATOM
     1 PA         101.9280    83.8040   -38.5310 P.3          1 NDP300   0.0000
     2 O1A        101.9310    83.4820   -37.0890 O.co2        1 NDP300   0.0000
     3 O2A        102.1950    82.5910   -39.3620 O.co2        1 NDP300  -1.0000
     4 O5B        103.0090    84.9900   -38.8240 O.3          1 NDP300   0.0000
     5 C5B        103.4450    85.9420   -37.8630 C.3          1 NDP300   0.0000
     6 C4B        104.8730    85.6840   -37.3640 C.3          1 NDP300   0.0000
     7 O4B        105.3520    86.8440   -36.6920 O.3          1 NDP300   0.0000
     8 C3B        104.9910    84.5350   -36.3630 C.3          1 NDP300   0.0000
     9 O3B        105.9760    83.6180   -36.7780 O.3          1 NDP300   0.0000
    10 C2B        105.3390    85.2320   -35.0610 C.3          1 NDP300   0.0000
    11 O2B        106.0650    84.4490   -34.1320 O.3          1 NDP300   0.0000
    12 C1B        106.1020    86.4450   -35.5710 C.3          1 NDP300   0.0000
    13 N9A        106.3160    87.5080   -34.5540 N.pl3        1 NDP300   0.0000
    14 C8A        105.4430    88.0340   -33.6320 C.2          1 NDP300   0.0000
    15 N7A        106.0990    88.9640   -32.8910 N.2          1 NDP300   0.0000
    16 C5A        107.3800    89.0340   -33.3250 C.ar         1 NDP300   0.0000
    17 C6A        108.4810    89.7910   -32.9380 C.ar         1 NDP300   0.0000
    18 N6A        108.3370    90.8340   -32.1240 N.pl3        1 NDP300   0.0000
    19 N1A        109.6870    89.6120   -33.5890 N.ar         1 NDP300   0.0000
    20 C2A        109.8140    88.6990   -34.6110 C.ar         1 NDP300   0.0000
    21 N3A        108.7250    87.9540   -34.9930 N.ar         1 NDP300   0.0000
    22 C4A        107.5280    88.1180   -34.3630 C.ar         1 NDP300   0.0000
    23 O3         100.5050    84.4550   -38.9090 O.3          1 NDP300   0.0000
    24 PN         100.0250    84.6560   -40.4200 P.3          1 NDP300   0.0000
    25 O1N        101.1400    85.1030   -41.2830 O.co2        1 NDP300   0.0000
    26 O2N         99.2900    83.4180   -40.7720 O.co2        1 NDP300  -1.0000
    27 O5D         98.9800    85.8700   -40.2970 O.3          1 NDP300   0.0000
    28 C5D         99.3360    87.2070   -40.0330 C.3          1 NDP300   0.0000
    29 C4D         98.1230    88.1390   -40.1460 C.3          1 NDP300   0.0000
    30 O4D         97.5100    88.0630   -41.4380 O.3          1 NDP300   0.0000
    31 C3D         97.0770    87.7710   -39.0870 C.3          1 NDP300   0.0000
    32 O3D         96.3980    88.9010   -38.5570 O.3          1 NDP300   0.0000
    33 C2D         96.1620    86.8490   -39.8820 C.3          1 NDP300   0.0000
    34 O2D         94.8860    86.6060   -39.2950 O.3          1 NDP300   0.0000
    35 C1D         96.1850    87.5540   -41.2520 C.3          1 NDP300   0.0000
    36 N1N         95.7630    86.6680   -42.3630 N.ar         1 NDP300   1.0000
    37 C2N         96.3720    85.4490   -42.5630 C.ar         1 NDP300   0.0000
    38 C3N         96.0100    84.6190   -43.6300 C.ar         1 NDP300   0.0000
    39 C7N         96.7810    83.3530   -43.9270 C.2          1 NDP300   0.0000
    40 O7N         96.6140    82.7050   -45.1640 O.2          1 NDP300   0.0000
    41 N7N         97.6550    82.8550   -43.0670 N.am         1 NDP300   0.0000
    42 C4N         95.2030    85.2030   -44.7730 C.ar         1 NDP300   0.0000
    43 C5N         94.6000    86.5410   -44.4600 C.ar         1 NDP300   0.0000
    44 C6N         94.9210    87.2240   -43.2890 C.ar         1 NDP300   0.0000
    45 P2B        105.3490    83.2330   -33.3600 P.3          1 NDP300   0.0000
    46 O1X        106.0500    82.7990   -32.0880 O.co2        1 NDP300   0.0000
    47 O2X        103.9910    83.7660   -32.9360 O.co2        1 NDP300  -1.0000
    48 O3X        105.2730    82.1070   -34.3650 O.co2        1 NDP300  -1.0000
    49 H5B1       102.8239    85.9109   -37.0799 H            1 NDP300   0.0000
    50 H5B2       103.4125    86.8511   -38.2783 H            1 NDP300   0.0000
    51 H4B        105.4633    85.4947   -38.1487 H            1 NDP300   0.0000
    52 H3B        104.1101    84.0701   -36.2743 H            1 NDP300   0.0000
    53 H5         106.0401    82.8739   -36.1130 H            1 NDP300   0.0000
    54 H2B        104.4935    85.5433   -34.6273 H            1 NDP300   0.0000
    55 H1B        106.9978    86.1364   -35.8907 H            1 NDP300   0.0000
    56 H8A        104.4832    87.7747   -33.5245 H            1 NDP300   0.0000
    57 H6A1       109.1360    91.3706   -31.8528 H            1 NDP300   0.0000
    58 H6A2       107.4298    91.0811   -31.7836 H            1 NDP300   0.0000
    59 H2A        110.6931    88.5788   -35.0723 H            1 NDP300   0.0000
    60 H5D1       100.0309    87.4953   -40.6918 H            1 NDP300   0.0000
    61 H5D2        99.7087    87.2682   -39.1071 H            1 NDP300   0.0000
    62 H4D         98.4240    89.0794   -39.9876 H            1 NDP300   0.0000
    63 H3D         97.5116    87.2593   -38.3459 H            1 NDP300   0.0000
    64 H16         96.1271    88.7144   -37.6126 H            1 NDP300   0.0000
    65 H2D         96.6259    85.9688   -39.9824 H            1 NDP300   0.0000
    66 H18         94.9619    86.6576   -38.2992 H            1 NDP300   0.0000
    67 H1D         95.5549    88.3296   -41.2146 H            1 NDP300   0.0000
    68 H2N         97.0883    85.1506   -41.9322 H            1 NDP300   0.0000
    69 H7N1        98.1518    82.0158   -43.2884 H            1 NDP300   0.0000
    70 H7N2        97.8186    83.3179   -42.1958 H            1 NDP300   0.0000
    71 H4N         95.0839    84.7406   -45.6517 H            1 NDP300   0.0000
    72 H5N         93.9548    86.9506   -45.1049 H            1 NDP300   0.0000
    73 H6N         94.5323    88.1302   -43.1228 H            1 NDP300   0.0000
@<TRIPOS>BOND
     1    1    2      ar
     2    1    3      ar
     3    1    4       1
     4    1   23       1
     5    4    5       1
     6    5    6       1
     7    6    7       1
     8    6    8       1
     9    7   12       1
    10    8    9       1
    11    8   10       1
    12   10   11       1
    13   10   12       1
    14   11   45       1
    15   12   13       1
    16   13   14       1
    17   13   22       1
    18   14   15       2
    19   15   16       1
    20   16   17      ar
    21   16   22      ar
    22   17   18       1
    23   17   19      ar
    24   19   20      ar
    25   20   21      ar
    26   21   22      ar
    27   23   24       1
    28   24   25      ar
    29   24   26      ar
    30   24   27       1
    31   27   28       1
    32   28   29       1
    33   29   30       1
    34   29   31       1
    35   30   35       1
    36   31   32       1
    37   31   33       1
    38   33   34       1
    39   33   35       1
    40   35   36       1
    41   36   37      ar
    42   36   44      ar
    43   37   38      ar
    44   38   39       1
    45   38   42      ar
    46   39   40       2
    47   39   41      am
    48   42   43      ar
    49   43   44      ar
    50   45   46      ar
    51   45   47      ar
    52   45   48      ar
    53   43   72       1
    54    5   49       1
    55    5   50       1
    56    6   51       1
    57    8   52       1
    58    9   53       1
    59   10   54       1
    60   12   55       1
    61   14   56       1
    62   18   57       1
    63   18   58       1
    64   20   59       1
    65   44   73       1
    66   28   60       1
    67   28   61       1
    68   29   62       1
    69   31   63       1
    70   32   64       1
    71   33   65       1
    72   34   66       1
    73   35   67       1
    74   37   68       1
    75   41   69       1
    76   41   70       1
    77   42   71       1
@<TRIPOS>SUBSTRUCTURE
     1 NDP300      1 GROUP             4 B     NDP     0 **** NDP B 300
