@<TRIPOS>MOLECULE
3r5f_ATP_1_ligand
   43    45     1     0     0
SMALL
NO_CHARGES


@<TRIPOS>ATOM
     1 PG          10.6850    16.6970    15.3690 P.3          1 ATP368   0.0000
     2 O1G         11.3800    17.9150    14.7780 O.co2        1 ATP368   0.0000
     3 O2G         11.6300    15.5160    15.5050 O.co2        1 ATP368  -1.0000
     4 O3G          9.7750    16.9380    16.5800 O.co2        1 ATP368  -1.0000
     5 PB           8.4900    15.2200    14.5080 P.3          1 ATP368   0.0000
     6 O1B          8.2960    15.0180    16.0030 O.co2        1 ATP368   0.0000
     7 O2B          8.5530    14.0010    13.6380 O.co2        1 ATP368  -1.0000
     8 O3B          9.6630    16.2740    14.2070 O.3          1 ATP368   0.0000
     9 PA           6.6400    17.4140    14.6470 P.3          1 ATP368   0.0000
    10 O1A          7.4670    18.0010    15.7740 O.co2        1 ATP368   0.0000
    11 O2A          5.2190    16.9470    14.8910 O.co2        1 ATP368  -1.0000
    12 O3A          7.2770    16.1140    13.9190 O.3          1 ATP368   0.0000
    13 O5'          6.7800    18.5670    13.5070 O.3          1 ATP368   0.0000
    14 C5'          8.0250    19.2240    13.2380 C.3          1 ATP368   0.0000
    15 C4'          7.9300    20.7410    13.3520 C.3          1 ATP368   0.0000
    16 O4'          7.0290    21.2420    12.3610 O.3          1 ATP368   0.0000
    17 C3'          7.3840    21.3020    14.6810 C.3          1 ATP368   0.0000
    18 O3'          8.3870    21.6110    15.6380 O.3          1 ATP368   0.0000
    19 C2'          6.8200    22.6300    14.2480 C.3          1 ATP368   0.0000
    20 O2'          7.9150    23.5220    13.9800 O.3          1 ATP368   0.0000
    21 C1'          6.2570    22.3310    12.8930 C.3          1 ATP368   0.0000
    22 N9           4.8530    21.9050    13.0420 N.pl3        1 ATP368   0.0000
    23 C8           4.4080    20.6400    13.0900 C.2          1 ATP368   0.0000
    24 N7           3.0530    20.6430    13.1780 N.2          1 ATP368   0.0000
    25 C5           2.6170    21.9050    13.2420 C.ar         1 ATP368   0.0000
    26 C6           1.2910    22.5940    13.3610 C.ar         1 ATP368   0.0000
    27 N6           0.1090    21.8820    13.4500 N.pl3        1 ATP368   0.0000
    28 N1           1.3420    23.9510    13.3740 N.ar         1 ATP368   0.0000
    29 C2           2.4800    24.6730    13.2820 C.ar         1 ATP368   0.0000
    30 N3           3.6970    24.1060    13.1770 N.ar         1 ATP368   0.0000
    31 C4           3.8240    22.7470    13.1510 C.ar         1 ATP368   0.0000
    32 H5'1         8.3150    18.9910    12.3098 H            1 ATP368   0.0000
    33 H5'2         8.7067    18.8966    13.8923 H            1 ATP368   0.0000
    34 H4'          8.8358    21.1316    13.1878 H            1 ATP368   0.0000
    35 H3'          6.6766    20.7101    15.0673 H            1 ATP368   0.0000
    36 H5           8.9033    20.7835    15.8588 H            1 ATP368   0.0000
    37 H2'          6.1471    23.0047    14.8858 H            1 ATP368   0.0000
    38 H7           8.1550    24.0157    14.8159 H            1 ATP368   0.0000
    39 H1'          6.3216    23.1329    12.2990 H            1 ATP368   0.0000
    40 H9           4.9841    19.8230    13.0649 H            1 ATP368   0.0000
    41 H10         -0.7621    22.3668    13.5286 H            1 ATP368   0.0000
    42 H11          0.1252    20.8822    13.4358 H            1 ATP368   0.0000
    43 H12          2.4160    25.6709    13.2923 H            1 ATP368   0.0000
@<TRIPOS>BOND
     1    1    2      ar
     2    1    3      ar
     3    1    4      ar
     4    1    8       1
     5    5    6      ar
     6    5    7      ar
     7    5    8       1
     8    5   12       1
     9    9   10      ar
    10    9   11      ar
    11    9   12       1
    12    9   13       1
    13   13   14       1
    14   14   15       1
    15   15   16       1
    16   15   17       1
    17   16   21       1
    18   17   18       1
    19   17   19       1
    20   19   20       1
    21   19   21       1
    22   21   22       1
    23   22   23       1
    24   22   31       1
    25   23   24       2
    26   24   25       1
    27   25   26      ar
    28   25   31      ar
    29   26   27       1
    30   26   28      ar
    31   28   29      ar
    32   29   30      ar
    33   30   31      ar
    34   29   43       1
    35   27   42       1
    36   27   41       1
    37   23   40       1
    38   14   32       1
    39   14   33       1
    40   15   34       1
    41   17   35       1
    42   18   36       1
    43   19   37       1
    44   20   38       1
    45   21   39       1
@<TRIPOS>SUBSTRUCTURE
     1 ATP368      1 GROUP             4 A     ATP     0 **** ATP A 368
