@<TRIPOS>MOLECULE
2oz5_7XY_3_ligand
   65    68     1     0     0
SMALL
NO_CHARGES


@<TRIPOS>ATOM
     1 CAV         41.5070    75.5630     9.4290 C.ar         1 7XY277   0.0000
     2 CBE         41.1280    74.3240     9.9550 C.ar         1 7XY277   0.0000
     3 CLF         42.2960    73.0440     9.9570 Cl           1 7XY277   0.0000
     4 CAN         39.8250    74.1300    10.4470 C.ar         1 7XY277   0.0000
     5 CAM         38.8870    75.1690    10.4500 C.ar         1 7XY277   0.0000
     6 CAO         39.2650    76.4080     9.9220 C.ar         1 7XY277   0.0000
     7 CBF         40.5590    76.5960     9.4160 C.ar         1 7XY277   0.0000
     8 CAY         40.9710    77.9640     8.8710 C.3          1 7XY277   0.0000
     9 NBL         41.1200    78.8980    10.0180 N.am         1 7XY277   0.0000
    10 CBD         40.3630    80.0060    10.0910 C.2          1 7XY277   0.0000
    11 OAB         39.5090    80.2910     9.2630 O.2          1 7XY277   0.0000
    12 CBC         40.5920    81.0420    11.1890 C.2          1 7XY277   0.0000
    13 OAE         39.7100    81.1990    12.0540 O.co2        1 7XY277   0.0000
    14 OAA         41.6310    81.7200    11.1330 O.co2        1 7XY277  -1.0000
    15 CAZ         42.1030    78.5620    11.0860 C.3          1 7XY277   0.0000
    16 CBG         43.5430    78.6570    10.5470 C.2          1 7XY277   0.0000
    17 SBB         44.2060    80.0830     9.9670 S.3          1 7XY277   0.0000
    18 CAT         44.4800    77.7070    10.4360 C.2          1 7XY277   0.0000
    19 CAU         45.6660    78.1010     9.8970 C.2          1 7XY277   0.0000
    20 CBJ         45.6920    79.4000     9.6060 C.2          1 7XY277   0.0000
    21 SBM         47.0110    80.2670     8.8730 S.o2         1 7XY277   0.0000
    22 OAC         46.7090    81.7360     8.9580 O.2          1 7XY277   0.0000
    23 OAD         48.3010    80.0030     9.5670 O.2          1 7XY277   0.0000
    24 NBA         47.1580    79.7790     7.3430 N.3          1 7XY277   0.0000
    25 CAW         45.8700    79.9370     6.6430 C.3          1 7XY277   0.0000
    26 CAX         46.0750    79.7550     5.1300 C.3          1 7XY277   0.0000
    27 CBK         45.9160    78.3050     4.7190 C.3          1 7XY277   0.0000
    28 CBI         44.5960    77.6250     5.1950 C.ar         1 7XY277   0.0000
    29 CAR         43.3300    78.0650     4.8290 C.ar         1 7XY277   0.0000
    30 CAK         42.1920    77.3770     5.2820 C.ar         1 7XY277   0.0000
    31 CAH         42.3640    76.2390     6.0680 C.ar         1 7XY277   0.0000
    32 CAL         43.6300    75.7920     6.4190 C.ar         1 7XY277   0.0000
    33 CAS         44.7490    76.4870     5.9790 C.ar         1 7XY277   0.0000
    34 CBH         46.2360    78.0540     3.2130 C.ar         1 7XY277   0.0000
    35 CAP         46.1290    79.0450     2.2280 C.ar         1 7XY277   0.0000
    36 CAI         46.4780    78.7370     0.9050 C.ar         1 7XY277   0.0000
    37 CAG         46.9550    77.4590     0.5560 C.ar         1 7XY277   0.0000
    38 CAJ         47.0790    76.4740     1.5340 C.ar         1 7XY277   0.0000
    39 CAQ         46.7150    76.7850     2.8560 C.ar         1 7XY277   0.0000
    40 HAV         42.4296    75.7084     9.0716 H            1 7XY277   0.0000
    41 HAN         39.5634    73.2323    10.8016 H            1 7XY277   0.0000
    42 HAM         37.9688    75.0289    10.8206 H            1 7XY277   0.0000
    43 HAO         38.6094    77.1630     9.9054 H            1 7XY277   0.0000
    44 HAY1        40.2682    78.3048     8.2465 H            1 7XY277   0.0000
    45 HAY2        41.8406    77.8858     8.3835 H            1 7XY277   0.0000
    46 HAZ1        41.9333    77.6305    11.4076 H            1 7XY277   0.0000
    47 HAZ2        41.9938    79.2022    11.8464 H            1 7XY277   0.0000
    48 HAT         44.3182    76.7653    10.7312 H            1 7XY277   0.0000
    49 HAU         46.4347    77.4818     9.7368 H            1 7XY277   0.0000
    50 HBA         47.8551    80.3300     6.8842 H            1 7XY277   0.0000
    51 HAW1        45.5050    80.8508     6.8212 H            1 7XY277   0.0000
    52 HAW2        45.2246    79.2495     6.9758 H            1 7XY277   0.0000
    53 HAX1        46.9950    80.0626     4.8873 H            1 7XY277   0.0000
    54 HAX2        45.3993    80.3072     4.6417 H            1 7XY277   0.0000
    55 HBK         46.6394    77.8230     5.2133 H            1 7XY277   0.0000
    56 HAR         43.2290    78.8699     4.2442 H            1 7XY277   0.0000
    57 HAK         41.2751    77.6980     5.0448 H            1 7XY277   0.0000
    58 HAH         41.5603    75.7353     6.3849 H            1 7XY277   0.0000
    59 HAL         43.7359    74.9746     6.9852 H            1 7XY277   0.0000
    60 HAS         45.6644    76.1691     6.2260 H            1 7XY277   0.0000
    61 HAP         45.8074    79.9615     2.4658 H            1 7XY277   0.0000
    62 HAI         46.3865    79.4373     0.1971 H            1 7XY277   0.0000
    63 HAG         47.2042    77.2586    -0.3915 H            1 7XY277   0.0000
    64 HAJ         47.4203    75.5636     1.3001 H            1 7XY277   0.0000
    65 HAQ         46.8000    76.0816     3.5616 H            1 7XY277   0.0000
@<TRIPOS>BOND
     1    1    2      ar
     2    1    7      ar
     3    2    3       1
     4    2    4      ar
     5    4    5      ar
     6    5    6      ar
     7    6    7      ar
     8    7    8       1
     9    8    9       1
    10    9   10      am
    11    9   15       1
    12   10   11       2
    13   10   12       1
    14   12   13      ar
    15   12   14      ar
    16   15   16       1
    17   16   17       1
    18   16   18       2
    19   17   20       1
    20   18   19       1
    21   19   20       2
    22   20   21       1
    23   21   22       2
    24   21   23       2
    25   21   24       1
    26   24   25       1
    27   25   26       1
    28   26   27       1
    29   27   28       1
    30   27   34       1
    31   28   29      ar
    32   28   33      ar
    33   29   30      ar
    34   30   31      ar
    35   31   32      ar
    36   32   33      ar
    37   34   35      ar
    38   34   39      ar
    39   35   36      ar
    40   36   37      ar
    41   37   38      ar
    42   38   39      ar
    43    1   40       1
    44    4   41       1
    45    5   42       1
    46    6   43       1
    47    8   44       1
    48    8   45       1
    49   39   65       1
    50   15   46       1
    51   15   47       1
    52   18   48       1
    53   19   49       1
    54   24   50       1
    55   25   51       1
    56   25   52       1
    57   26   53       1
    58   26   54       1
    59   27   55       1
    60   29   56       1
    61   30   57       1
    62   31   58       1
    63   32   59       1
    64   33   60       1
    65   35   61       1
    66   36   62       1
    67   37   63       1
    68   38   64       1
@<TRIPOS>SUBSTRUCTURE
     1 7XY277      1 GROUP             4 B     7XY     0 **** 7XY B 277
