@<TRIPOS>MOLECULE
4jiq_1L5_1_ligand
   21    21     1     0     0
SMALL
NO_CHARGES


@<TRIPOS>ATOM
     1 C1          -0.0210     1.4340     9.5090 C.2          1 1L5402   0.0000
     2 C2          -1.2980     1.0630    10.2140 C.ar         1 1L5402   0.0000
     3 C3          -2.4960     1.0420     9.5040 C.ar         1 1L5402   0.0000
     4 C4          -3.6980     0.7020    10.1250 C.ar         1 1L5402   0.0000
     5 C5          -3.7110     0.3650    11.4680 C.ar         1 1L5402   0.0000
     6 C6          -2.5120     0.3750    12.1720 C.ar         1 1L5402   0.0000
     7 C7          -1.3120     0.7150    11.5530 C.ar         1 1L5402   0.0000
     8 C8          -0.1160     2.0500     8.3290 C.2          1 1L5402   0.0000
     9 O1           0.8000     2.1170     6.4170 O.co2        1 1L5402   0.0000
    10 N            0.8610     2.3910     7.6000 N.2          1 1L5402   1.0000
    11 O            1.9980     3.0850     8.0370 O.co2        1 1L5402  -1.0000
    12 C            1.3280     1.1510    10.0960 C.3          1 1L5402   0.0000
    13 H1          -2.4945     1.2749     8.5315 H            1 1L5402   0.0000
    14 H2          -4.5495     0.7016     9.6007 H            1 1L5402   0.0000
    15 H3          -4.5668     0.1190    11.9231 H            1 1L5402   0.0000
    16 H4          -2.5115     0.1332    13.1423 H            1 1L5402   0.0000
    17 H5          -0.4600     0.7077    12.0764 H            1 1L5402   0.0000
    18 H6          -1.0343     2.2594     7.9931 H            1 1L5402   0.0000
    19 H7           2.0381     1.4753     9.4711 H            1 1L5402   0.0000
    20 H8           1.4153     1.6227    10.9734 H            1 1L5402   0.0000
    21 H9           1.4310     0.1661    10.2353 H            1 1L5402   0.0000
@<TRIPOS>BOND
     1    1    2       1
     2    1    8       2
     3    1   12       1
     4    2    3      ar
     5    2    7      ar
     6    3    4      ar
     7    4    5      ar
     8    5    6      ar
     9    6    7      ar
    10    8   10       1
    11    9   10      ar
    12   10   11      ar
    13    3   13       1
    14    4   14       1
    15    5   15       1
    16    6   16       1
    17    7   17       1
    18    8   18       1
    19   12   19       1
    20   12   20       1
    21   12   21       1
@<TRIPOS>SUBSTRUCTURE
     1 1L5402      1 GROUP             4 A     1L5     0 **** 1L5 A 402
