@<TRIPOS>MOLECULE
5a2w_AGS_3_ligand
   43    45     1     0     0
SMALL
NO_CHARGES


@<TRIPOS>ATOM
     1 PG          31.0320     5.2180     0.6620 P.3          1 AGS1528   0.0000
     2 S1G         29.3870     5.5400     1.5970 S.2          1 AGS1528   0.0000
     3 O2G         30.7380     4.4230    -0.6310 O.co2        1 AGS1528  -1.0000
     4 O3G         31.7850     6.5370     0.3470 O.co2        1 AGS1528  -1.0000
     5 PB          32.7420     3.0480     1.2030 P.3          1 AGS1528   0.0000
     6 O1B         33.3520     2.4240     2.4230 O.co2        1 AGS1528   0.0000
     7 O2B         31.7360     2.0550     0.5090 O.co2        1 AGS1528  -1.0000
     8 O3B         31.9510     4.3700     1.6330 O.3          1 AGS1528   0.0000
     9 PA          34.0880     3.1050    -1.2520 P.3          1 AGS1528   0.0000
    10 O1A         32.6430     2.8450    -1.8590 O.co2        1 AGS1528   0.0000
    11 O2A         34.7500     4.2000    -1.9540 O.co2        1 AGS1528  -1.0000
    12 O3A         33.9380     3.4820     0.2270 O.3          1 AGS1528   0.0000
    13 O5'         34.9980     1.7820    -1.3520 O.3          1 AGS1528   0.0000
    14 C5'         34.4830     0.5420    -0.9070 C.3          1 AGS1528   0.0000
    15 C4'         35.5520    -0.2380    -0.0930 C.3          1 AGS1528   0.0000
    16 O4'         36.6810    -0.2900    -0.7190 O.3          1 AGS1528   0.0000
    17 C3'         35.8930     0.4890     1.2430 C.3          1 AGS1528   0.0000
    18 O3'         34.9850     0.1720     2.2300 O.3          1 AGS1528   0.0000
    19 C2'         37.2470    -0.0840     1.5850 C.3          1 AGS1528   0.0000
    20 O2'         37.0610    -1.4070     2.2880 O.3          1 AGS1528   0.0000
    21 C1'         37.8530    -0.2030     0.4020 C.3          1 AGS1528   0.0000
    22 N9          38.6520     0.9310     0.1380 N.pl3        1 AGS1528   0.0000
    23 C8          38.3030     2.0350    -0.5780 C.2          1 AGS1528   0.0000
    24 N7          39.3620     2.8980    -0.5780 N.2          1 AGS1528   0.0000
    25 C5          40.3520     2.3330     0.1330 C.ar         1 AGS1528   0.0000
    26 C6          41.6400     2.7740     0.4480 C.ar         1 AGS1528   0.0000
    27 N6          42.3370     4.0290     0.0900 N.pl3        1 AGS1528   0.0000
    28 N1          42.4390     2.0120     1.1770 N.ar         1 AGS1528   0.0000
    29 C2          41.9900     0.7700     1.6330 C.ar         1 AGS1528   0.0000
    30 N3          40.7250     0.3440     1.3220 N.ar         1 AGS1528   0.0000
    31 C4          39.9180     1.1110     0.5800 C.ar         1 AGS1528   0.0000
    32 H5'1        34.2115    -0.0039    -1.6997 H            1 AGS1528   0.0000
    33 H5'2        33.6853     0.7073    -0.3271 H            1 AGS1528   0.0000
    34 H4'         35.2257    -1.1639     0.0973 H            1 AGS1528   0.0000
    35 H3'         35.9460     1.4786     1.1092 H            1 AGS1528   0.0000
    36 H5          34.2280     0.8251     2.2088 H            1 AGS1528   0.0000
    37 H2'         37.7527     0.5500     2.1700 H            1 AGS1528   0.0000
    38 H7          37.0417    -2.1438     1.6121 H            1 AGS1528   0.0000
    39 H1'         38.4122    -1.0318     0.3822 H            1 AGS1528   0.0000
    40 H9          37.4226     2.1880    -1.0269 H            1 AGS1528   0.0000
    41 H10         43.2733     4.1878     0.4031 H            1 AGS1528   0.0000
    42 H11         41.8718     4.7185    -0.4651 H            1 AGS1528   0.0000
    43 H12         42.5909     0.1925     2.1857 H            1 AGS1528   0.0000
@<TRIPOS>BOND
     1    1    2       2
     2    1    3      ar
     3    1    4      ar
     4    1    8       1
     5    5    6      ar
     6    5    7      ar
     7    5    8       1
     8    5   12       1
     9    9   10      ar
    10    9   11      ar
    11    9   12       1
    12    9   13       1
    13   13   14       1
    14   14   15       1
    15   15   16       1
    16   15   17       1
    17   16   21       1
    18   17   18       1
    19   17   19       1
    20   19   20       1
    21   19   21       1
    22   21   22       1
    23   22   23       1
    24   22   31       1
    25   23   24       2
    26   24   25       1
    27   25   26      ar
    28   25   31      ar
    29   26   27       1
    30   26   28      ar
    31   28   29      ar
    32   29   30      ar
    33   30   31      ar
    34   29   43       1
    35   27   42       1
    36   27   41       1
    37   23   40       1
    38   14   32       1
    39   14   33       1
    40   15   34       1
    41   17   35       1
    42   18   36       1
    43   19   37       1
    44   20   38       1
    45   21   39       1
@<TRIPOS>SUBSTRUCTURE
     1 AGS1528     1 GROUP             4 B     AGS     0 **** AGS B1528
