@<TRIPOS>MOLECULE
2ako_ADP_2_ligand
   39    41     1     0     0
SMALL
NO_CHARGES


@<TRIPOS>ATOM
     1 PB          31.6320   -35.6130    11.3150 P.3          1 ADP853   0.0000
     2 O1B         31.9770   -35.9810     9.8930 O.co2        1 ADP853   0.0000
     3 O2B         30.8660   -36.6800    12.0590 O.co2        1 ADP853  -1.0000
     4 O3B         31.0640   -34.2250    11.4760 O.co2        1 ADP853  -1.0000
     5 PA          34.0240   -34.3500    12.3910 P.3          1 ADP853   0.0000
     6 O1A         34.8690   -34.1160    11.1560 O.co2        1 ADP853   0.0000
     7 O2A         33.2780   -33.1780    12.9840 O.co2        1 ADP853  -1.0000
     8 O3A         33.0500   -35.6130    12.1010 O.3          1 ADP853   0.0000
     9 O5'         34.9190   -34.9650    13.5860 O.3          1 ADP853   0.0000
    10 C5'         35.7290   -36.1410    13.4660 C.3          1 ADP853   0.0000
    11 C4'         37.1550   -35.7390    13.0800 C.3          1 ADP853   0.0000
    12 O4'         37.8800   -35.2330    14.2070 O.3          1 ADP853   0.0000
    13 C3'         37.9820   -36.9010    12.5390 C.3          1 ADP853   0.0000
    14 O3'         37.8050   -37.1070    11.1240 O.3          1 ADP853   0.0000
    15 C2'         39.4070   -36.5300    12.9030 C.3          1 ADP853   0.0000
    16 O2'         40.0660   -35.9200    11.7950 O.3          1 ADP853   0.0000
    17 C1'         39.2800   -35.5490    14.0720 C.3          1 ADP853   0.0000
    18 N9          39.8550   -36.1210    15.3320 N.pl3        1 ADP853   0.0000
    19 C8          40.6790   -35.4680    16.1780 C.2          1 ADP853   0.0000
    20 N7          41.0290   -36.2620    17.2260 N.2          1 ADP853   0.0000
    21 C5          40.4180   -37.4480    17.0630 C.ar         1 ADP853   0.0000
    22 C6          40.3530   -38.7310    17.7970 C.ar         1 ADP853   0.0000
    23 N6          41.0310   -38.9030    18.9410 N.pl3        1 ADP853   0.0000
    24 N1          39.5980   -39.7250    17.3030 N.ar         1 ADP853   0.0000
    25 C2          38.9090   -39.5720    16.1540 C.ar         1 ADP853   0.0000
    26 N3          38.9270   -38.4320    15.4310 N.ar         1 ADP853   0.0000
    27 C4          39.6450   -37.3540    15.8180 C.ar         1 ADP853   0.0000
    28 H5'1        35.3480   -36.7380    12.7600 H            1 ADP853   0.0000
    29 H5'2        35.7442   -36.6263    14.3402 H            1 ADP853   0.0000
    30 H4'         37.1091   -35.0251    12.3812 H            1 ADP853   0.0000
    31 H3'         37.7278   -37.7371    13.0251 H            1 ADP853   0.0000
    32 H5          38.6848   -37.0053    10.6597 H            1 ADP853   0.0000
    33 H2'         39.9090   -37.3447    13.1932 H            1 ADP853   0.0000
    34 H7          40.8666   -36.4636    11.5428 H            1 ADP853   0.0000
    35 H1'         39.7772   -34.7119    13.8437 H            1 ADP853   0.0000
    36 H9          40.9907   -34.5263    16.0515 H            1 ADP853   0.0000
    37 H10         40.9783   -39.7753    19.4271 H            1 ADP853   0.0000
    38 H11         41.5893   -38.1590    19.3080 H            1 ADP853   0.0000
    39 H12         38.3592   -40.3385    15.8220 H            1 ADP853   0.0000
@<TRIPOS>BOND
     1    1    2      ar
     2    1    3      ar
     3    1    4      ar
     4    1    8       1
     5    5    6      ar
     6    5    7      ar
     7    5    8       1
     8    5    9       1
     9    9   10       1
    10   10   11       1
    11   11   12       1
    12   11   13       1
    13   12   17       1
    14   13   14       1
    15   13   15       1
    16   15   16       1
    17   15   17       1
    18   17   18       1
    19   18   19       1
    20   18   27       1
    21   19   20       2
    22   20   21       1
    23   21   22      ar
    24   21   27      ar
    25   22   23       1
    26   22   24      ar
    27   24   25      ar
    28   25   26      ar
    29   26   27      ar
    30   25   39       1
    31   23   38       1
    32   23   37       1
    33   10   28       1
    34   10   29       1
    35   11   30       1
    36   13   31       1
    37   14   32       1
    38   15   33       1
    39   16   34       1
    40   17   35       1
    41   19   36       1
@<TRIPOS>SUBSTRUCTURE
     1 ADP853      1 GROUP             4 B     ADP     0 **** ADP B 853
