@<TRIPOS>MOLECULE
1akr_FMN_1_ligand
   50    52     1     0     0
SMALL
NO_CHARGES


@<TRIPOS>ATOM
     1 N1          -4.1670    36.0330    18.0950 N.2          1 FMN149   0.0000
     2 C2          -3.2060    36.7360    18.7940 C.2          1 FMN149   0.0000
     3 O2          -2.3360    37.5450    18.1480 O.2          1 FMN149   0.0000
     4 N3          -3.1450    36.6640    20.1800 N.pl3        1 FMN149   0.0000
     5 C4          -4.0190    35.8690    20.9070 C.2          1 FMN149   0.0000
     6 O4          -3.8960    35.8010    22.2740 O.2          1 FMN149   0.0000
     7 C4A         -5.0060    35.1320    20.1860 C.2          1 FMN149   0.0000
     8 N5          -5.8690    34.3250    20.8950 N.2          1 FMN149   0.0000
     9 C5A         -6.8990    33.7120    20.1710 C.ar         1 FMN149   0.0000
    10 C6          -7.8640    33.0020    20.9350 C.ar         1 FMN149   0.0000
    11 C7          -8.8950    32.4130    20.1900 C.ar         1 FMN149   0.0000
    12 C7M         -9.9050    31.6880    20.9090 C.3          1 FMN149   0.0000
    13 C8          -8.9740    32.5170    18.7920 C.ar         1 FMN149   0.0000
    14 C8M        -10.0430    31.9070    18.0560 C.3          1 FMN149   0.0000
    15 C9          -7.9980    33.2220    18.0570 C.ar         1 FMN149   0.0000
    16 C9A         -6.9310    33.8180    18.7710 C.ar         1 FMN149   0.0000
    17 N10         -5.9830    34.5220    18.0320 N.pl3        1 FMN149   0.0000
    18 C10         -5.0500    35.2280    18.7760 C.2          1 FMN149   0.0000
    19 C1'         -5.9430    34.6770    16.6350 C.3          1 FMN149   0.0000
    20 C2'         -5.2750    33.4120    16.0560 C.3          1 FMN149   0.0000
    21 O2'         -3.8870    33.3320    16.4270 O.3          1 FMN149   0.0000
    22 C3'         -5.3640    33.5390    14.5100 C.3          1 FMN149   0.0000
    23 O3'         -6.7170    33.2100    14.2170 O.3          1 FMN149   0.0000
    24 C4'         -4.4010    32.7710    13.7020 C.3          1 FMN149   0.0000
    25 O4'         -4.5360    33.1090    12.2930 O.3          1 FMN149   0.0000
    26 C5'         -4.4510    31.3460    13.8580 C.3          1 FMN149   0.0000
    27 O5'         -3.3530    30.8000    13.1270 O.3          1 FMN149   0.0000
    28 P           -3.2830    29.1870    12.7530 P.3          1 FMN149   0.0000
    29 O1P         -3.3950    28.3190    14.1420 O.co2        1 FMN149   0.0000
    30 O2P         -1.8390    28.9240    11.9800 O.co2        1 FMN149  -1.0000
    31 O3P         -4.4640    28.8110    11.6560 O.co2        1 FMN149  -1.0000
    32 H1          -2.4536    37.1987    20.6659 H            1 FMN149   0.0000
    33 H2          -7.8115    32.9280    21.9309 H            1 FMN149   0.0000
    34 H7M1       -10.5753    31.3215    20.2637 H            1 FMN149   0.0000
    35 H7M2        -9.4805    30.9352    21.4121 H            1 FMN149   0.0000
    36 H7M3       -10.3625    32.3024    21.5518 H            1 FMN149   0.0000
    37 H8M1        -9.9242    32.0921    17.0805 H            1 FMN149   0.0000
    38 H8M2       -10.0335    30.9192    18.2114 H            1 FMN149   0.0000
    39 H8M3       -10.9168    32.2843    18.3629 H            1 FMN149   0.0000
    40 H9          -8.0581    33.2984    17.0617 H            1 FMN149   0.0000
    41 H1'1        -5.4084    35.4874    16.3951 H            1 FMN149   0.0000
    42 H1'2        -6.8707    34.7707    16.2737 H            1 FMN149   0.0000
    43 H2'         -5.7615    32.5941    16.3632 H            1 FMN149   0.0000
    44 H13         -3.8095    33.3029    17.4236 H            1 FMN149   0.0000
    45 H3'         -5.2377    34.5048    14.2837 H            1 FMN149   0.0000
    46 H15         -7.0097    33.7022    13.3972 H            1 FMN149   0.0000
    47 H4'         -3.4871    33.0624    13.9845 H            1 FMN149   0.0000
    48 H17         -4.3612    34.0854    12.1662 H            1 FMN149   0.0000
    49 H5'1        -5.3132    30.9921    13.4955 H            1 FMN149   0.0000
    50 H5'2        -4.3720    31.1047    14.8252 H            1 FMN149   0.0000
@<TRIPOS>BOND
     1    1    2       1
     2    1   18       2
     3    2    3       2
     4    2    4       1
     5    4    5       1
     6    5    6       2
     7    5    7       1
     8    7    8       2
     9    7   18       1
    10    8    9       1
    11    9   10      ar
    12    9   16      ar
    13   10   11      ar
    14   11   12       1
    15   11   13      ar
    16   13   14       1
    17   13   15      ar
    18   15   16      ar
    19   16   17       1
    20   17   18       1
    21   17   19       1
    22   19   20       1
    23   20   21       1
    24   20   22       1
    25   22   23       1
    26   22   24       1
    27   24   25       1
    28   24   26       1
    29   26   27       1
    30   27   28       1
    31   28   29      ar
    32   28   30      ar
    33   28   31      ar
    34    4   32       1
    35   10   33       1
    36   12   34       1
    37   12   35       1
    38   12   36       1
    39   14   37       1
    40   14   38       1
    41   14   39       1
    42   15   40       1
    43   19   41       1
    44   19   42       1
    45   20   43       1
    46   21   44       1
    47   22   45       1
    48   23   46       1
    49   24   47       1
    50   25   48       1
    51   26   49       1
    52   26   50       1
@<TRIPOS>SUBSTRUCTURE
     1 FMN149      1 GROUP             4 A     FMN     0 **** FMN A 149
