@<TRIPOS>MOLECULE
1frb_ZST_1_ligand
   40    43     1     0     0
SMALL
NO_CHARGES


@<TRIPOS>ATOM
     1 C1          76.7250    -4.2660    23.8110 C.2          1 ZST351   0.0000
     2 O1          76.2640    -3.7050    22.8110 O.2          1 ZST351   0.0000
     3 C2          76.2040    -5.4940    24.3900 C.ar         1 ZST351   0.0000
     4 C3          76.8780    -6.1000    25.4580 C.ar         1 ZST351   0.0000
     5 C4          78.0910    -5.4670    25.9330 C.2          1 ZST351   0.0000
     6 C5          75.0250    -6.0580    23.9030 C.ar         1 ZST351   0.0000
     7 C6          74.5140    -7.1920    24.4960 C.ar         1 ZST351   0.0000
     8 C7          75.1790    -7.7940    25.5510 C.ar         1 ZST351   0.0000
     9 C8          76.3510    -7.2630    26.0330 C.ar         1 ZST351   0.0000
    10 N1          77.8430    -3.7700    24.4180 N.pl3        1 ZST351   0.0000
    11 N2          78.5480    -4.3530    25.4590 N.2          1 ZST351   0.0000
    12 C9          78.2660    -2.3980    24.1280 C.3          1 ZST351   0.0000
    13 C10         77.4510    -1.4510    24.9900 C.2          1 ZST351   0.0000
    14 C11         75.7930    -0.4450    26.4960 C.ar         1 ZST351   0.0000
    15 C12         76.7490     0.4320    25.9680 C.ar         1 ZST351   0.0000
    16 C13         74.7980     0.0210    27.3720 C.ar         1 ZST351   0.0000
    17 C14         74.7890     1.3480    27.7040 C.ar         1 ZST351   0.0000
    18 C15         75.7520     2.2230    27.1900 C.ar         1 ZST351   0.0000
    19 C16         76.7260     1.7880    26.3170 C.ar         1 ZST351   0.0000
    20 N3          77.6810    -0.1830    25.1060 N.2          1 ZST351   0.0000
    21 S1          76.0950    -2.0330    25.9250 S.3          1 ZST351   0.0000
    22 C17         78.9220    -6.0960    27.0140 C.3          1 ZST351   0.0000
    23 C18         78.4540    -5.7380    28.3900 C.2          1 ZST351   0.0000
    24 O2          77.5440    -4.8870    28.5070 O.co2        1 ZST351   0.0000
    25 O3          78.9670    -6.2710    29.3990 O.co2        1 ZST351  -1.0000
    26 C19         75.7480     3.6430    27.6980 C.3          1 ZST351   0.0000
    27 F1          75.9720     3.7240    29.0010 F            1 ZST351   0.0000
    28 F2          74.5920     4.2480    27.4620 F            1 ZST351   0.0000
    29 F3          76.6670     4.4230    27.1390 F            1 ZST351   0.0000
    30 H1          74.5524    -5.6411    23.1266 H            1 ZST351   0.0000
    31 H2          73.6565    -7.5832    24.1620 H            1 ZST351   0.0000
    32 H3          74.8029    -8.6226    25.9657 H            1 ZST351   0.0000
    33 H4          76.8267    -7.7061    26.7928 H            1 ZST351   0.0000
    34 H5          78.1096    -2.1938    23.1616 H            1 ZST351   0.0000
    35 H6          79.2381    -2.2932    24.3378 H            1 ZST351   0.0000
    36 H7          74.1117    -0.6037    27.7445 H            1 ZST351   0.0000
    37 H8          74.0848     1.6972    28.3222 H            1 ZST351   0.0000
    38 H9          77.3996     2.4250    25.9421 H            1 ZST351   0.0000
    39 H10         79.8680    -5.7893    26.9087 H            1 ZST351   0.0000
    40 H11         78.8804    -7.0898    26.9111 H            1 ZST351   0.0000
@<TRIPOS>BOND
     1    1    2       2
     2    1    3       1
     3    1   10       1
     4    3    4      ar
     5    3    6      ar
     6    4    5       1
     7    4    9      ar
     8    5   11       2
     9    5   22       1
    10    6    7      ar
    11    7    8      ar
    12    8    9      ar
    13   10   11       1
    14   10   12       1
    15   12   13       1
    16   13   20       2
    17   13   21       1
    18   14   15      ar
    19   14   16      ar
    20   14   21       1
    21   15   19      ar
    22   15   20       1
    23   16   17      ar
    24   17   18      ar
    25   18   19      ar
    26   18   26       1
    27   22   23       1
    28   23   24      ar
    29   23   25      ar
    30   26   27       1
    31   26   28       1
    32   26   29       1
    33    6   30       1
    34    7   31       1
    35    8   32       1
    36    9   33       1
    37   12   34       1
    38   12   35       1
    39   16   36       1
    40   17   37       1
    41   19   38       1
    42   22   39       1
    43   22   40       1
@<TRIPOS>SUBSTRUCTURE
     1 ZST351      1 GROUP             4 A     ZST     0 **** ZST A 351
