@<TRIPOS>MOLECULE
4y6u_UPG_1_ligand
   58    60     1     0     0
SMALL
NO_CHARGES


@<TRIPOS>ATOM
     1 N1          34.6420   -13.1680    27.2790 N.pl3        1 UPG404   0.0000
     2 C2          33.9850   -14.2240    26.6110 C.2          1 UPG404   0.0000
     3 N3          34.7040   -15.0930    25.8530 N.pl3        1 UPG404   0.0000
     4 C4          36.0420   -14.9650    25.7330 C.2          1 UPG404   0.0000
     5 C5          36.7110   -13.9130    26.3700 C.2          1 UPG404   0.0000
     6 C6          35.9770   -13.0040    27.1250 C.2          1 UPG404   0.0000
     7 O2          32.7460   -14.3450    26.7450 O.2          1 UPG404   0.0000
     8 O4          36.6930   -15.7940    25.0540 O.2          1 UPG404   0.0000
     9 C1C         33.8670   -12.1890    28.0290 C.3          1 UPG404   0.0000
    10 C2C         34.3580   -11.9770    29.4610 C.3          1 UPG404   0.0000
    11 O2C         33.7290   -12.9470    30.2720 O.3          1 UPG404   0.0000
    12 C3C         33.9140   -10.5730    29.7330 C.3          1 UPG404   0.0000
    13 C4C         33.9190    -9.8860    28.3590 C.3          1 UPG404   0.0000
    14 O4C         33.9820   -10.9230    27.3800 O.3          1 UPG404   0.0000
    15 O3C         32.6130   -10.6260    30.3050 O.3          1 UPG404   0.0000
    16 C5C         35.1170    -8.9500    28.2420 C.3          1 UPG404   0.0000
    17 O5C         36.2760    -9.7570    28.3920 O.3          1 UPG404   0.0000
    18 PA          37.5270    -9.2750    29.2710 P.3          1 UPG404   0.0000
    19 O1A         37.0510    -8.7940    30.6540 O.co2        1 UPG404   0.0000
    20 O2A         38.3910   -10.5090    29.4550 O.co2        1 UPG404  -1.0000
    21 O3A         38.1520    -8.0910    28.3620 O.3          1 UPG404   0.0000
    22 PB          38.8420    -6.6780    28.8040 P.3          1 UPG404   0.0000
    23 O1B         40.2290    -6.9520    29.2740 O.co2        1 UPG404   0.0000
    24 O2B         37.9770    -5.8630    29.7340 O.co2        1 UPG404  -1.0000
    25 O3B         38.8860    -5.9090    27.3980 O.3          1 UPG404   0.0000
    26 C1'         38.2660    -4.6650    27.0350 C.3          1 UPG404   0.0000
    27 C2'         36.7280    -4.6880    27.0760 C.3          1 UPG404   0.0000
    28 C3'         36.2100    -5.8920    26.3040 C.3          1 UPG404   0.0000
    29 C4'         36.7150    -5.7870    24.8800 C.3          1 UPG404   0.0000
    30 C5'         38.2170    -5.5940    24.8350 C.3          1 UPG404   0.0000
    31 C6'         38.6550    -5.4600    23.3650 C.3          1 UPG404   0.0000
    32 O2'         36.2220    -4.7300    28.4210 O.3          1 UPG404   0.0000
    33 O3'         34.7700    -5.9540    26.3700 O.3          1 UPG404   0.0000
    34 O4'         36.4080    -6.9580    24.1050 O.3          1 UPG404   0.0000
    35 O5'         38.5990    -4.4760    25.6590 O.3          1 UPG404   0.0000
    36 O6'         37.7000    -4.6760    22.6470 O.3          1 UPG404   0.0000
    37 H1          34.2352   -15.8375    25.3776 H            1 UPG404   0.0000
    38 H2          37.7026   -13.8164    26.2835 H            1 UPG404   0.0000
    39 H3          36.4368   -12.2272    27.5552 H            1 UPG404   0.0000
    40 H1C         32.9068   -12.4677    28.0452 H            1 UPG404   0.0000
    41 H2C         35.3535   -12.0553    29.5144 H            1 UPG404   0.0000
    42 H6          34.0299   -12.8355    31.2191 H            1 UPG404   0.0000
    43 H3C         34.5517   -10.1180    30.3545 H            1 UPG404   0.0000
    44 H4C         33.0736    -9.3649    28.2416 H            1 UPG404   0.0000
    45 H9          31.9852   -11.0686    29.6648 H            1 UPG404   0.0000
    46 H5C1        35.0843    -8.2556    28.9608 H            1 UPG404   0.0000
    47 H5C2        35.1204    -8.5036    27.3472 H            1 UPG404   0.0000
    48 H1'         38.6238    -3.9154    27.5919 H            1 UPG404   0.0000
    49 H2'         36.3868    -3.8580    26.6348 H            1 UPG404   0.0000
    50 H3'         36.5853    -6.7222    26.7163 H            1 UPG404   0.0000
    51 H4'         36.2807    -4.9972    24.4469 H            1 UPG404   0.0000
    52 H5'         38.6454    -6.4156    25.2112 H            1 UPG404   0.0000
    53 H6'1        38.7164    -6.3688    22.9524 H            1 UPG404   0.0000
    54 H6'2        39.5492    -5.0141    23.3240 H            1 UPG404   0.0000
    55 H19         36.5575    -5.5539    28.8778 H            1 UPG404   0.0000
    56 H20         34.4832    -6.0327    27.3247 H            1 UPG404   0.0000
    57 H21         35.8391    -6.7010    23.3238 H            1 UPG404   0.0000
    58 H6'         36.9965    -5.2753    22.2650 H            1 UPG404   0.0000
@<TRIPOS>BOND
     1    1    2       1
     2    1    6       1
     3    1    9       1
     4    2    3       1
     5    2    7       2
     6    3    4       1
     7    4    5       1
     8    4    8       2
     9    5    6       2
    10    9   10       1
    11    9   14       1
    12   10   11       1
    13   10   12       1
    14   12   13       1
    15   12   15       1
    16   13   14       1
    17   13   16       1
    18   16   17       1
    19   17   18       1
    20   18   19      ar
    21   18   20      ar
    22   18   21       1
    23   21   22       1
    24   22   23      ar
    25   22   24      ar
    26   22   25       1
    27   25   26       1
    28   26   27       1
    29   26   35       1
    30   27   28       1
    31   27   32       1
    32   28   29       1
    33   28   33       1
    34   29   30       1
    35   29   34       1
    36   30   31       1
    37   30   35       1
    38   31   36       1
    39    3   37       1
    40    5   38       1
    41    6   39       1
    42    9   40       1
    43   10   41       1
    44   11   42       1
    45   12   43       1
    46   13   44       1
    47   15   45       1
    48   16   46       1
    49   16   47       1
    50   36   58       1
    51   34   57       1
    52   26   48       1
    53   27   49       1
    54   28   50       1
    55   29   51       1
    56   30   52       1
    57   31   53       1
    58   31   54       1
    59   32   55       1
    60   33   56       1
@<TRIPOS>SUBSTRUCTURE
     1 UPG404      1 GROUP             4 A     UPG     0 **** UPG A 404
