@<TRIPOS>MOLECULE
4v37_NAD_2_ligand
   70    74     1     0     0
SMALL
NO_CHARGES


@<TRIPOS>ATOM
     1 PA          26.2640    49.8360    24.2170 P.3          1 NAD1498   0.0000
     2 O1A         26.1570    48.5310    24.6360 O.co2        1 NAD1498   0.0000
     3 O2A         25.6120    50.2480    23.0560 O.co2        1 NAD1498  -1.0000
     4 O5B         27.7080    50.4300    24.1570 O.3          1 NAD1498   0.0000
     5 C5B         28.5750    50.3910    25.2520 C.3          1 NAD1498   0.0000
     6 C4B         30.0650    50.3450    24.8810 C.3          1 NAD1498   0.0000
     7 O4B         30.3940    49.1910    24.2240 O.3          1 NAD1498   0.0000
     8 C3B         30.4230    51.5520    24.0140 C.3          1 NAD1498   0.0000
     9 O3B         31.5790    52.1930    24.4410 O.3          1 NAD1498   0.0000
    10 C2B         30.4570    50.9150    22.6540 C.3          1 NAD1498   0.0000
    11 O2B         31.2330    51.5430    21.7090 O.3          1 NAD1498   0.0000
    12 C1B         30.9540    49.5420    22.9950 C.3          1 NAD1498   0.0000
    13 N9A         30.6550    48.5280    21.9870 N.pl3        1 NAD1498   0.0000
    14 C8A         29.6480    48.4750    21.1930 C.2          1 NAD1498   0.0000
    15 N7A         29.6810    47.3800    20.4590 N.2          1 NAD1498   0.0000
    16 C5A         30.7490    46.7450    20.7560 C.ar         1 NAD1498   0.0000
    17 C6A         31.4200    45.4980    20.3780 C.ar         1 NAD1498   0.0000
    18 N6A         30.9400    44.6880    19.4460 N.pl3        1 NAD1498   0.0000
    19 N1A         32.5480    45.2660    20.9920 N.ar         1 NAD1498   0.0000
    20 C2A         33.0570    46.0300    21.9240 C.ar         1 NAD1498   0.0000
    21 N3A         32.5120    47.1250    22.3410 N.ar         1 NAD1498   0.0000
    22 C4A         31.3920    47.5190    21.7900 C.ar         1 NAD1498   0.0000
    23 O3          25.7050    50.6680    25.4450 O.3          1 NAD1498   0.0000
    24 PN          25.2680    52.1670    25.5750 P.3          1 NAD1498   0.0000
    25 O1N         24.2950    52.5190    24.6330 O.co2        1 NAD1498   0.0000
    26 O2N         26.4040    52.8900    25.7830 O.co2        1 NAD1498  -1.0000
    27 O5D         24.6420    52.4170    27.0000 O.3          1 NAD1498   0.0000
    28 C5D         23.3960    51.9570    27.4100 C.3          1 NAD1498   0.0000
    29 C4D         23.4560    50.6330    28.1740 C.3          1 NAD1498   0.0000
    30 O4D         24.3790    50.6680    29.2160 O.3          1 NAD1498   0.0000
    31 C3D         22.0850    50.4540    28.7770 C.3          1 NAD1498   0.0000
    32 O3D         21.5600    49.2410    28.4130 O.3          1 NAD1498   0.0000
    33 C2D         22.3470    50.6670    30.2780 C.3          1 NAD1498   0.0000
    34 O2D         21.6520    49.8560    31.1280 O.3          1 NAD1498   0.0000
    35 C1D         23.8100    50.3200    30.4120 C.3          1 NAD1498   0.0000
    36 N1N         24.5180    50.7930    31.6170 N.ar         1 NAD1498   1.0000
    37 C2N         24.6930    49.9350    32.5900 C.ar         1 NAD1498   0.0000
    38 C3N         25.3380    50.2530    33.7650 C.ar         1 NAD1498   0.0000
    39 C7N         25.5160    49.2300    34.8660 C.2          1 NAD1498   0.0000
    40 O7N         26.1620    49.4470    35.8270 O.2          1 NAD1498   0.0000
    41 N7N         24.9290    48.0860    34.7140 N.am         1 NAD1498   0.0000
    42 C4N         25.8010    51.5310    33.8830 C.ar         1 NAD1498   0.0000
    43 C5N         25.6250    52.4000    32.8360 C.ar         1 NAD1498   0.0000
    44 C6N         24.9490    52.0130    31.7290 C.ar         1 NAD1498   0.0000
    45 H5B1        28.3617    49.5761    25.7909 H            1 NAD1498   0.0000
    46 H5B2        28.4158    51.2081    25.8061 H            1 NAD1498   0.0000
    47 H4B         30.6013    50.3919    25.7237 H            1 NAD1498   0.0000
    48 H3B         29.6654    52.2040    24.0437 H            1 NAD1498   0.0000
    49 H5          31.4541    52.5155    25.3793 H            1 NAD1498   0.0000
    50 H2B         29.5216    50.8430    22.3077 H            1 NAD1498   0.0000
    51 H7          30.6803    52.2160    21.2175 H            1 NAD1498   0.0000
    52 H1B         31.9467    49.5882    23.1062 H            1 NAD1498   0.0000
    53 H8A         28.9329    49.1719    21.1382 H            1 NAD1498   0.0000
    54 H6A1        31.4275    43.8456    19.2163 H            1 NAD1498   0.0000
    55 H6A2        30.0902    44.9190    18.9722 H            1 NAD1498   0.0000
    56 H2A         33.9220    45.7491    22.3398 H            1 NAD1498   0.0000
    57 H5D1        22.8234    51.8296    26.6002 H            1 NAD1498   0.0000
    58 H5D2        22.9836    52.6472    28.0046 H            1 NAD1498   0.0000
    59 H4D         23.6633    49.8796    27.5499 H            1 NAD1498   0.0000
    60 H3D         21.4852    51.1817    28.4444 H            1 NAD1498   0.0000
    61 H17         20.5631    49.3082    28.3713 H            1 NAD1498   0.0000
    62 H2D         22.1981    51.6258    30.5198 H            1 NAD1498   0.0000
    63 H19         20.6709    49.9963    30.9949 H            1 NAD1498   0.0000
    64 H1D         23.8489    49.3215    30.4498 H            1 NAD1498   0.0000
    65 H2N         24.3422    49.0056    32.4750 H            1 NAD1498   0.0000
    66 H7N1        25.0195    47.3803    35.4167 H            1 NAD1498   0.0000
    67 H7N2        24.3851    47.9081    33.8939 H            1 NAD1498   0.0000
    68 H4N         26.2612    51.8295    34.7191 H            1 NAD1498   0.0000
    69 H5N         25.9988    53.3259    32.8911 H            1 NAD1498   0.0000
    70 H6N         24.7806    52.6697    30.9938 H            1 NAD1498   0.0000
@<TRIPOS>BOND
     1    1    2      ar
     2    1    3      ar
     3    1    4       1
     4    1   23       1
     5    4    5       1
     6    5    6       1
     7    6    7       1
     8    6    8       1
     9    7   12       1
    10    8    9       1
    11    8   10       1
    12   10   11       1
    13   10   12       1
    14   12   13       1
    15   13   14       1
    16   13   22       1
    17   14   15       2
    18   15   16       1
    19   16   17      ar
    20   16   22      ar
    21   17   18       1
    22   17   19      ar
    23   19   20      ar
    24   20   21      ar
    25   21   22      ar
    26   23   24       1
    27   24   25      ar
    28   24   26      ar
    29   24   27       1
    30   27   28       1
    31   28   29       1
    32   29   30       1
    33   29   31       1
    34   30   35       1
    35   31   32       1
    36   31   33       1
    37   33   34       1
    38   33   35       1
    39   35   36       1
    40   36   37      ar
    41   36   44      ar
    42   37   38      ar
    43   38   39       1
    44   38   42      ar
    45   39   40       2
    46   39   41      am
    47   42   43      ar
    48   43   44      ar
    49   44   70       1
    50    5   45       1
    51    5   46       1
    52    6   47       1
    53    8   48       1
    54    9   49       1
    55   10   50       1
    56   11   51       1
    57   12   52       1
    58   14   53       1
    59   18   54       1
    60   18   55       1
    61   20   56       1
    62   43   69       1
    63   28   57       1
    64   28   58       1
    65   29   59       1
    66   31   60       1
    67   32   61       1
    68   33   62       1
    69   34   63       1
    70   35   64       1
    71   37   65       1
    72   41   66       1
    73   41   67       1
    74   42   68       1
@<TRIPOS>SUBSTRUCTURE
     1 NAD1498     1 GROUP             4 B     NAD     0 **** NAD B1498
