@<TRIPOS>MOLECULE
1txz_APR_1_ligand
   57    60     1     0     0
SMALL
NO_CHARGES


@<TRIPOS>ATOM
     1 N1          47.1600     5.6180    23.9550 N.ar         1 APR285   0.0000
     2 C2          48.4190     5.1530    23.5940 C.ar         1 APR285   0.0000
     3 N3          48.6950     4.2160    22.7120 N.ar         1 APR285   0.0000
     4 C4          47.5430     3.6950    22.1240 C.ar         1 APR285   0.0000
     5 C5          46.2260     4.0390    22.3730 C.ar         1 APR285   0.0000
     6 C6          46.0260     5.0730    23.3460 C.ar         1 APR285   0.0000
     7 N6          44.8150     5.5270    23.7030 N.pl3        1 APR285   0.0000
     8 N7          45.3580     3.2860    21.5800 N.2          1 APR285   0.0000
     9 C8          46.1530     2.4910    20.8650 C.2          1 APR285   0.0000
    10 N9          47.4810     2.7030    21.1580 N.pl3        1 APR285   0.0000
    11 C1'         48.7020     2.0840    20.6260 C.3          1 APR285   0.0000
    12 C2'         48.5570     0.6370    20.2790 C.3          1 APR285   0.0000
    13 O2'         48.8180    -0.2010    21.4200 O.3          1 APR285   0.0000
    14 C3'         49.5720     0.4090    19.1240 C.3          1 APR285   0.0000
    15 O3'         50.8880    -0.0380    19.4940 O.3          1 APR285   0.0000
    16 O4'         49.0900     2.7360    19.4440 O.3          1 APR285   0.0000
    17 C4'         49.6670     1.8030    18.4770 C.3          1 APR285   0.0000
    18 C5'         49.0530     1.9940    17.1010 C.3          1 APR285   0.0000
    19 O5'         48.0240     1.0390    16.7790 O.3          1 APR285   0.0000
    20 PA          46.7980     1.5330    15.8540 P.3          1 APR285   0.0000
    21 O1A         46.1910     2.7590    16.3940 O.co2        1 APR285   0.0000
    22 O2A         45.7790     0.4800    15.7820 O.co2        1 APR285  -1.0000
    23 O3A         47.4860     1.8090    14.4820 O.3          1 APR285   0.0000
    24 PB          48.2980     0.8630    13.4260 P.3          1 APR285   0.0000
    25 O1B         48.8390     1.3280    12.1470 O.co2        1 APR285   0.0000
    26 O2B         48.1280    -0.6050    13.5970 O.co2        1 APR285  -1.0000
    27 O5D         46.8280     0.8570    12.7640 O.3          1 APR285   0.0000
    28 C5D         46.2110     2.0780    12.2530 C.3          1 APR285   0.0000
    29 O4D         44.0300     1.3120    12.8620 O.3          1 APR285   0.0000
    30 O1D         42.5030     2.2310    14.3700 O.3          1 APR285   0.0000
    31 C1D         42.8950     2.1330    12.9740 C.3          1 APR285   0.0000
    32 O2D         42.3160     4.3830    12.0390 O.3          1 APR285   0.0000
    33 C2D         43.3600     3.4430    12.4160 C.3          1 APR285   0.0000
    34 O3D         43.1420     2.5750    10.1190 O.3          1 APR285   0.0000
    35 C3D         44.0620     2.9430    11.1710 C.3          1 APR285   0.0000
    36 C4D         44.8290     1.7640    11.7420 C.3          1 APR285   0.0000
    37 H1          49.1995     5.5761    24.0542 H            1 APR285   0.0000
    38 H2          43.9934     5.1480    23.2772 H            1 APR285   0.0000
    39 H3          44.7340     6.2444    24.3949 H            1 APR285   0.0000
    40 H4          45.8251     1.8225    20.1975 H            1 APR285   0.0000
    41 H1'         49.4327     2.1812    21.3018 H            1 APR285   0.0000
    42 H2'         47.6298     0.4660    19.9457 H            1 APR285   0.0000
    43 H7          49.7509    -0.0426    21.7435 H            1 APR285   0.0000
    44 H3'         49.1805    -0.2330    18.4648 H            1 APR285   0.0000
    45 H9          51.3124     0.6377    20.0967 H            1 APR285   0.0000
    46 H4'         50.6389     2.0249    18.3985 H            1 APR285   0.0000
    47 H5'1        49.7799     1.9145    16.4189 H            1 APR285   0.0000
    48 H5'2        48.6552     2.9105    17.0590 H            1 APR285   0.0000
    49 H5D1        46.7668     2.4459    11.5075 H            1 APR285   0.0000
    50 H5D2        46.1496     2.7535    12.9878 H            1 APR285   0.0000
    51 H1D         41.5728     1.8810    14.4804 H            1 APR285   0.0000
    52 H16         42.1436     1.7667    12.4252 H            1 APR285   0.0000
    53 H2D         42.6525     5.3179    12.1521 H            1 APR285   0.0000
    54 H18         44.0137     3.8759    13.0367 H            1 APR285   0.0000
    55 H3D         42.5391     1.8460    10.4433 H            1 APR285   0.0000
    56 H20         44.7010     3.6365    10.8381 H            1 APR285   0.0000
    57 H4D         44.8837     1.0379    11.0565 H            1 APR285   0.0000
@<TRIPOS>BOND
     1    1    2      ar
     2    1    6      ar
     3    2    3      ar
     4    3    4      ar
     5    4    5      ar
     6    4   10       1
     7    5    6      ar
     8    5    8       1
     9    6    7       1
    10    8    9       2
    11    9   10       1
    12   10   11       1
    13   11   12       1
    14   11   16       1
    15   12   13       1
    16   12   14       1
    17   14   15       1
    18   14   17       1
    19   16   17       1
    20   17   18       1
    21   18   19       1
    22   19   20       1
    23   20   21      ar
    24   20   22      ar
    25   20   23       1
    26   23   24       1
    27   24   25      ar
    28   24   26      ar
    29   24   27       1
    30   27   28       1
    31   28   36       1
    32   29   31       1
    33   29   36       1
    34   30   31       1
    35   31   33       1
    36   32   33       1
    37   33   35       1
    38   34   35       1
    39   35   36       1
    40    2   37       1
    41    7   38       1
    42    7   39       1
    43    9   40       1
    44   11   41       1
    45   12   42       1
    46   13   43       1
    47   14   44       1
    48   15   45       1
    49   17   46       1
    50   18   47       1
    51   18   48       1
    52   36   57       1
    53   35   56       1
    54   28   49       1
    55   28   50       1
    56   30   51       1
    57   31   52       1
    58   32   53       1
    59   33   54       1
    60   34   55       1
@<TRIPOS>SUBSTRUCTURE
     1 APR285      1 GROUP             4 A     APR     0 **** APR A 285
