@<TRIPOS>MOLECULE
1kv9_PQQ_1_ligand
   28    30     1     0     0
SMALL
NO_CHARGES


@<TRIPOS>ATOM
     1 N1           2.0980     0.0270     7.9400 N.pl3        1 PQQ801   0.0000
     2 C2           3.0030     1.0340     7.6710 C.2          1 PQQ801   0.0000
     3 C2X          2.6800     2.5240     7.7220 C.2          1 PQQ801   0.0000
     4 O2A          1.4960     2.8170     7.9600 O.co2        1 PQQ801   0.0000
     5 O2B          3.6080     3.3220     7.4940 O.co2        1 PQQ801  -1.0000
     6 C3           4.2140     0.4410     7.3640 C.2          1 PQQ801   0.0000
     7 C3A          4.0200    -0.9390     7.4680 C.ar         1 PQQ801   0.0000
     8 C1A          2.6820    -1.1620     7.8350 C.ar         1 PQQ801   0.0000
     9 C4           5.0310    -2.0280     7.2510 C.ar         1 PQQ801   0.0000
    10 O4           6.1780    -1.9000     6.9340 O.3          1 PQQ801   0.0000
    11 C5           4.4690    -3.4910     7.5010 C.ar         1 PQQ801   0.0000
    12 O5           5.2150    -4.4820     7.3600 O.3          1 PQQ801  -1.0000
    13 C6A          3.0040    -3.6390     7.9100 C.ar         1 PQQ801   0.0000
    14 N6           2.7010    -4.9340     8.0920 N.ar         1 PQQ801   0.0000
    15 C7           1.4450    -5.2770     8.4640 C.ar         1 PQQ801   0.0000
    16 C7X          1.2740    -6.7370     8.7800 C.2          1 PQQ801   0.0000
    17 O7A          2.3810    -7.4350     8.7430 O.co2        1 PQQ801   0.0000
    18 O7B          0.1300    -7.1380     9.0630 O.co2        1 PQQ801  -1.0000
    19 C8           0.4360    -4.3360     8.6420 C.ar         1 PQQ801   0.0000
    20 C9           0.6930    -2.9240     8.4590 C.ar         1 PQQ801   0.0000
    21 C9X         -0.4900    -1.9540     8.6680 C.2          1 PQQ801   0.0000
    22 O9A         -0.2810    -0.7420     8.5990 O.co2        1 PQQ801   0.0000
    23 O9B         -1.6180    -2.4590     8.8520 O.co2        1 PQQ801  -1.0000
    24 C9A          2.0630    -2.5430     8.0820 C.ar         1 PQQ801   0.0000
    25 H1           1.1381     0.1719     8.1801 H            1 PQQ801   0.0000
    26 H2           5.0626     0.9083     7.1161 H            1 PQQ801   0.0000
    27 H3           6.7579    -2.7065     6.8190 H            1 PQQ801   0.0000
    28 H4          -0.4809    -4.6401     8.9004 H            1 PQQ801   0.0000
@<TRIPOS>BOND
     1    1    2       1
     2    1    8       1
     3    2    3       1
     4    2    6       2
     5    3    4      ar
     6    3    5      ar
     7    6    7       1
     8    7    8      ar
     9    7    9      ar
    10    8   24      ar
    11    9   10       1
    12    9   11      ar
    13   11   12       1
    14   11   13      ar
    15   13   14      ar
    16   13   24      ar
    17   14   15      ar
    18   15   16       1
    19   15   19      ar
    20   16   17      ar
    21   16   18      ar
    22   19   20      ar
    23   20   21       1
    24   20   24      ar
    25   21   22      ar
    26   21   23      ar
    27    1   25       1
    28   19   28       1
    29    6   26       1
    30   10   27       1
@<TRIPOS>SUBSTRUCTURE
     1 PQQ801      1 GROUP             4 A     PQQ     0 **** PQQ A 801
