@<TRIPOS>MOLECULE
3nzp_PLP_2_ligand
   26    26     1     0     0
SMALL
NO_CHARGES


@<TRIPOS>ATOM
     1 N1         -30.4450   100.0470   -12.0420 N.ar         1 PLP701   1.0000
     2 C2         -29.6600    99.0560   -12.4770 C.ar         1 PLP701   0.0000
     3 C2A        -29.0630    98.1030   -11.4770 C.3          1 PLP701   0.0000
     4 C3         -29.3760    98.9230   -13.8690 C.ar         1 PLP701   0.0000
     5 O3         -28.5650    97.9110   -14.3210 O.3          1 PLP701   0.0000
     6 C4         -29.9920    99.8700   -14.7950 C.ar         1 PLP701   0.0000
     7 C4A        -29.7480    99.7790   -16.2490 C.3          1 PLP701   0.0000
     8 C5         -30.8280   100.9150   -14.2420 C.ar         1 PLP701   0.0000
     9 C6         -31.0280   100.9480   -12.8550 C.ar         1 PLP701   0.0000
    10 C5A        -31.5060   101.9650   -15.1340 C.3          1 PLP701   0.0000
    11 O4P        -32.9050   101.6780   -15.3160 O.3          1 PLP701   0.0000
    12 P          -33.5440   102.8400   -16.2500 P.3          1 PLP701   0.0000
    13 O1P        -35.0130   102.7190   -16.2080 O.co2        1 PLP701   0.0000
    14 O2P        -33.1320   104.2970   -15.7300 O.co2        1 PLP701  -1.0000
    15 O3P        -33.0530   102.6580   -17.7610 O.co2        1 PLP701  -1.0000
    16 H2A1       -28.5054    97.4244   -11.9550 H            1 PLP701   0.0000
    17 H2A2       -28.4907    98.6108   -10.8331 H            1 PLP701   0.0000
    18 H2A3       -29.7962    97.6405   -10.9784 H            1 PLP701   0.0000
    19 H4         -28.3708    97.8245   -15.2981 H            1 PLP701   0.0000
    20 H4A1       -30.2500   100.5061   -16.7174 H            1 PLP701   0.0000
    21 H4A2       -28.7696    99.8796   -16.4298 H            1 PLP701   0.0000
    22 H4A3       -30.0592    98.8897   -16.5842 H            1 PLP701   0.0000
    23 H8         -31.6156   101.6550   -12.4614 H            1 PLP701   0.0000
    24 H5A1       -31.0567   101.9715   -16.0273 H            1 PLP701   0.0000
    25 H5A2       -31.4116   102.8642   -14.7068 H            1 PLP701   0.0000
    26 H11        -30.6081   100.1232   -11.0583 H            1 PLP701   0.0000
@<TRIPOS>BOND
     1    1    2      ar
     2    1    9      ar
     3    2    3       1
     4    2    4      ar
     5    4    5       1
     6    4    6      ar
     7    6    7       1
     8    6    8      ar
     9    8    9      ar
    10    8   10       1
    11   10   11       1
    12   11   12       1
    13   12   13      ar
    14   12   14      ar
    15   12   15      ar
    16    3   16       1
    17    3   17       1
    18    3   18       1
    19    5   19       1
    20    7   20       1
    21    7   21       1
    22    7   22       1
    23    9   23       1
    24   10   24       1
    25   10   25       1
    26    1   26       1
@<TRIPOS>SUBSTRUCTURE
     1 PLP701      1 GROUP             4 B     PLP     0 **** PLP B 701
