@<TRIPOS>MOLECULE
2a4f_AAU_1_ligand
   86    90     1     0     0
SMALL
NO_CHARGES


@<TRIPOS>ATOM
     1 C1          18.3860    18.2030     5.5950 C.3          1 AAU1000   0.0000
     2 O2          18.1270    18.5260     4.2280 O.3          1 AAU1000   0.0000
     3 C3          16.8060    18.8950     3.8610 C.ar         1 AAU1000   0.0000
     4 C4          15.7820    19.2740     4.8040 C.ar         1 AAU1000   0.0000
     5 C5          14.4850    19.6310     4.3590 C.ar         1 AAU1000   0.0000
     6 C6          13.4440    20.0030     5.3820 C.3          1 AAU1000   0.0000
     7 N7          13.1090    21.4310     5.6940 N.am         1 AAU1000   0.0000
     8 C8          14.1570    22.5160     5.6030 C.3          1 AAU1000   0.0000
     9 C9          14.5300    23.0940     7.0070 C.3          1 AAU1000   0.0000
    10 C10         14.9250    22.0320     8.0090 C.ar         1 AAU1000   0.0000
    11 C11         13.9700    21.4920     8.9090 C.ar         1 AAU1000   0.0000
    12 C12         14.3410    20.4880     9.8400 C.ar         1 AAU1000   0.0000
    13 C13         15.6720    20.0110     9.8820 C.ar         1 AAU1000   0.0000
    14 C14         16.6390    20.5380     8.9950 C.ar         1 AAU1000   0.0000
    15 C15         16.2630    21.5430     8.0640 C.ar         1 AAU1000   0.0000
    16 C16         13.7780    23.6580     4.5860 C.3          1 AAU1000   0.0000
    17 O17         14.8120    24.5950     4.6060 O.3          1 AAU1000   0.0000
    18 C18         12.4710    24.4360     4.8500 C.3          1 AAU1000   0.0000
    19 N19         11.3620    23.4920     4.7950 N.am         1 AAU1000   0.0000
    20 N20         11.1020    22.7850     5.8330 N.am         1 AAU1000   0.0000
    21 C21          9.9630    23.1180     6.7360 C.3          1 AAU1000   0.0000
    22 C22          9.7860    24.5350     7.1600 C.ar         1 AAU1000   0.0000
    23 C23         10.5040    25.0300     8.2710 C.ar         1 AAU1000   0.0000
    24 C24         10.3360    26.3720     8.6850 C.ar         1 AAU1000   0.0000
    25 C25          9.4520    27.2150     7.9850 C.ar         1 AAU1000   0.0000
    26 O26          9.3020    28.5190     8.4130 O.3          1 AAU1000   0.0000
    27 C27          8.7190    26.7420     6.8530 C.ar         1 AAU1000   0.0000
    28 O28          7.8640    27.6550     6.2150 O.3          1 AAU1000   0.0000
    29 C29          7.4580    27.3700     4.8820 C.3          1 AAU1000   0.0000
    30 C30          8.9020    25.3790     6.4530 C.ar         1 AAU1000   0.0000
    31 C31         11.8040    21.6260     6.1340 C.2          1 AAU1000   0.0000
    32 O32         11.2590    20.7380     6.8040 O.2          1 AAU1000   0.0000
    33 C33         10.5470    23.2040     3.6850 C.2          1 AAU1000   0.0000
    34 O34          9.9880    22.1030     3.6490 O.2          1 AAU1000   0.0000
    35 C35         10.2840    24.1660     2.4610 C.3          1 AAU1000   0.0000
    36 C36          8.9210    23.7450     1.7800 C.3          1 AAU1000   0.0000
    37 C37          7.5310    24.3130     2.0590 C.ar         1 AAU1000   0.0000
    38 C38          6.7880    23.6900     3.1120 C.ar         1 AAU1000   0.0000
    39 C39          5.4850    24.1280     3.4600 C.ar         1 AAU1000   0.0000
    40 C40          4.8970    25.1970     2.7640 C.ar         1 AAU1000   0.0000
    41 O41          3.6250    25.6060     3.1210 O.3          1 AAU1000   0.0000
    42 C42          5.6050    25.8340     1.7190 C.ar         1 AAU1000   0.0000
    43 C43          6.9210    25.3920     1.3670 C.ar         1 AAU1000   0.0000
    44 C44         14.1890    19.6180     2.9920 C.ar         1 AAU1000   0.0000
    45 C45         15.1860    19.2470     2.0450 C.ar         1 AAU1000   0.0000
    46 C46         16.4780    18.8900     2.4930 C.ar         1 AAU1000   0.0000
    47 O47         17.4290    18.5320     1.5530 O.3          1 AAU1000   0.0000
    48 H1          19.3509    17.9642     5.7040 H            1 AAU1000   0.0000
    49 H2          18.1707    18.9920     6.1705 H            1 AAU1000   0.0000
    50 H3          17.8177    17.4267     5.8675 H            1 AAU1000   0.0000
    51 H4          15.9898    19.2849     5.7821 H            1 AAU1000   0.0000
    52 H5          13.7388    19.5902     6.2438 H            1 AAU1000   0.0000
    53 H6          12.5915    19.5750     5.0819 H            1 AAU1000   0.0000
    54 H7          14.9842    22.0819     5.2463 H            1 AAU1000   0.0000
    55 H8          13.7391    23.5897     7.3659 H            1 AAU1000   0.0000
    56 H9          15.2971    23.7258     6.8959 H            1 AAU1000   0.0000
    57 H10         13.0264    21.8224     8.8867 H            1 AAU1000   0.0000
    58 H11         13.6587    20.1159    10.4693 H            1 AAU1000   0.0000
    59 H12         15.9289    19.3017    10.5384 H            1 AAU1000   0.0000
    60 H13         17.5816    20.2053     9.0229 H            1 AAU1000   0.0000
    61 H14         16.9482    21.9135     7.4369 H            1 AAU1000   0.0000
    62 H15         13.7294    23.2611     3.6694 H            1 AAU1000   0.0000
    63 H16         14.6205    25.2880     5.3010 H            1 AAU1000   0.0000
    64 H17         12.3500    25.1418     4.1520 H            1 AAU1000   0.0000
    65 H18         12.5077    24.8633     5.7534 H            1 AAU1000   0.0000
    66 H19         10.0751    22.5726     7.5667 H            1 AAU1000   0.0000
    67 H20          9.1237    22.8427     6.2672 H            1 AAU1000   0.0000
    68 H21         11.1326    24.4302     8.7661 H            1 AAU1000   0.0000
    69 H22         10.8437    26.7210     9.4727 H            1 AAU1000   0.0000
    70 H23          9.8160    28.8474     9.2055 H            1 AAU1000   0.0000
    71 H24          6.8558    28.0979     4.5541 H            1 AAU1000   0.0000
    72 H25          8.2641    27.3136     4.2929 H            1 AAU1000   0.0000
    73 H26          6.9687    26.4981     4.8618 H            1 AAU1000   0.0000
    74 H27          8.3991    25.0218     5.6659 H            1 AAU1000   0.0000
    75 H28         11.0307    24.0846     1.8009 H            1 AAU1000   0.0000
    76 H29         10.2237    25.1114     2.7813 H            1 AAU1000   0.0000
    77 H30          8.8375    22.7647     1.9590 H            1 AAU1000   0.0000
    78 H31          9.0668    23.8940     0.8020 H            1 AAU1000   0.0000
    79 H32          7.1974    22.9281     3.6139 H            1 AAU1000   0.0000
    80 H33          4.9857    23.6767     4.1996 H            1 AAU1000   0.0000
    81 H34          3.1406    25.1425     3.8629 H            1 AAU1000   0.0000
    82 H35          5.1857    26.5952     1.2243 H            1 AAU1000   0.0000
    83 H36          7.4150    25.8479     0.6266 H            1 AAU1000   0.0000
    84 H37         13.2736    19.8702     2.6783 H            1 AAU1000   0.0000
    85 H38         14.9729    19.2391     1.0680 H            1 AAU1000   0.0000
    86 H39         17.1947    18.5288     0.5808 H            1 AAU1000   0.0000
@<TRIPOS>BOND
     1    1    2       1
     2    2    3       1
     3    3    4      ar
     4    3   46      ar
     5    4    5      ar
     6    5    6       1
     7    5   44      ar
     8    6    7       1
     9    7    8       1
    10    7   31      am
    11    8    9       1
    12    8   16       1
    13    9   10       1
    14   10   11      ar
    15   10   15      ar
    16   11   12      ar
    17   12   13      ar
    18   13   14      ar
    19   14   15      ar
    20   16   17       1
    21   16   18       1
    22   18   19       1
    23   19   20       1
    24   19   33      am
    25   20   21       1
    26   20   31      am
    27   21   22       1
    28   22   23      ar
    29   22   30      ar
    30   23   24      ar
    31   24   25      ar
    32   25   26       1
    33   25   27      ar
    34   27   28       1
    35   27   30      ar
    36   28   29       1
    37   31   32       2
    38   33   34       2
    39   33   35       1
    40   35   36       1
    41   36   37       1
    42   37   38      ar
    43   37   43      ar
    44   38   39      ar
    45   39   40      ar
    46   40   41       1
    47   40   42      ar
    48   42   43      ar
    49   44   45      ar
    50   45   46      ar
    51   46   47       1
    52    1   48       1
    53    1   49       1
    54    1   50       1
    55    4   51       1
    56    6   52       1
    57    6   53       1
    58    8   54       1
    59    9   55       1
    60    9   56       1
    61   11   57       1
    62   12   58       1
    63   13   59       1
    64   14   60       1
    65   15   61       1
    66   16   62       1
    67   17   63       1
    68   18   64       1
    69   18   65       1
    70   21   66       1
    71   21   67       1
    72   23   68       1
    73   24   69       1
    74   26   70       1
    75   29   71       1
    76   29   72       1
    77   29   73       1
    78   30   74       1
    79   35   75       1
    80   35   76       1
    81   36   77       1
    82   36   78       1
    83   38   79       1
    84   39   80       1
    85   41   81       1
    86   42   82       1
    87   43   83       1
    88   44   84       1
    89   45   85       1
    90   47   86       1
@<TRIPOS>SUBSTRUCTURE
     1 AAU1000     1 GROUP             4 B     AAU     0 **** AAU B1000
