@<TRIPOS>MOLECULE
4hld_16T_1_ligand
   55    58     1     0     0
SMALL
NO_CHARGES


@<TRIPOS>ATOM
     1 C1          12.3470    -3.3710     0.9020 C.3          1 16T301   0.0000
     2 C2          11.8130    -2.0080     0.6980 C.2          1 16T301   0.0000
     3 C3          11.4020    -1.2570     1.7220 C.2          1 16T301   0.0000
     4 N4          10.8930     0.0130     1.5930 N.pl3        1 16T301   0.0000
     5 C5          10.7990     0.6400     0.3680 C.2          1 16T301   0.0000
     6 O6          10.3940     1.7850     0.2330 O.2          1 16T301   0.0000
     7 N7          11.1950    -0.1280    -0.7020 N.pl3        1 16T301   0.0000
     8 C8          11.6940    -1.4200    -0.6630 C.2          1 16T301   0.0000
     9 O9          12.0260    -2.0420    -1.6690 O.2          1 16T301   0.0000
    10 C10         10.4230     0.7370     2.7410 C.3          1 16T301   0.0000
    11 C11          9.4230    -0.0370     3.5930 C.3          1 16T301   0.0000
    12 C12          8.9300     0.7710     4.7820 C.3          1 16T301   0.0000
    13 C13         10.0970     1.3670     5.5480 C.3          1 16T301   0.0000
    14 N14         10.9310     2.1550     4.5890 N.3          1 16T301   0.0000
    15 C15         11.5610     1.3030     3.5450 C.3          1 16T301   0.0000
    16 S16         11.9330     3.3830     5.2320 S.o2         1 16T301   0.0000
    17 O17         11.1750     4.0580     6.2740 O.2          1 16T301   0.0000
    18 O18         12.5560     4.0590     4.1090 O.2          1 16T301   0.0000
    19 C19         13.2160     2.4030     5.9740 C.ar         1 16T301   0.0000
    20 C20         13.0310     1.9180     7.2510 C.ar         1 16T301   0.0000
    21 C21         14.0170     1.1330     7.8140 C.ar         1 16T301   0.0000
    22 C22         15.1540     0.8420     7.0920 C.ar         1 16T301   0.0000
    23 C23         15.3290     1.3350     5.8110 C.ar         1 16T301   0.0000
    24 C24         14.3640     2.1410     5.2480 C.ar         1 16T301   0.0000
    25 O25         16.4990     1.0890     5.1120 O.3          1 16T301   0.0000
    26 C26         16.5550     0.0590     4.1810 C.ar         1 16T301   0.0000
    27 C27         15.8180    -1.1100     4.2390 C.ar         1 16T301   0.0000
    28 C28         15.9910    -2.0740     3.2620 C.ar         1 16T301   0.0000
    29 C29         16.8910    -1.8860     2.2330 C.ar         1 16T301   0.0000
    30 C30         17.6210    -0.7180     2.1830 C.ar         1 16T301   0.0000
    31 C31         17.4530     0.2450     3.1530 C.ar         1 16T301   0.0000
    32 CL1         18.7460    -0.3830     0.9210 Cl           1 16T301   0.0000
    33 O33         16.1120     0.0490     7.6740 O.3          1 16T301   0.0000
    34 H1          12.5987    -3.7661     0.0185 H            1 16T301   0.0000
    35 H2          13.1546    -3.3280     1.4901 H            1 16T301   0.0000
    36 H3          11.6490    -3.9411     1.3354 H            1 16T301   0.0000
    37 H4          11.4687    -1.6432     2.6420 H            1 16T301   0.0000
    38 H5          11.1140     0.2915    -1.6061 H            1 16T301   0.0000
    39 H6           9.9236     1.5252     2.3815 H            1 16T301   0.0000
    40 H7           9.8640    -0.8688     3.9302 H            1 16T301   0.0000
    41 H8           8.6384    -0.2829     3.0239 H            1 16T301   0.0000
    42 H9           8.4086     0.1735     5.3912 H            1 16T301   0.0000
    43 H10          8.3407     1.5097     4.4550 H            1 16T301   0.0000
    44 H11         10.6459     0.6353     5.9521 H            1 16T301   0.0000
    45 H12          9.7560     1.9665     6.2720 H            1 16T301   0.0000
    46 H13         12.1607     1.8515     2.9624 H            1 16T301   0.0000
    47 H14         12.0894     0.5667     3.9678 H            1 16T301   0.0000
    48 H15         12.1973     2.1311     7.7605 H            1 16T301   0.0000
    49 H16         13.9066     0.7770     8.7419 H            1 16T301   0.0000
    50 H17         14.4906     2.5281     4.3347 H            1 16T301   0.0000
    51 H18         15.1649    -1.2573     4.9818 H            1 16T301   0.0000
    52 H19         15.4567    -2.9184     3.3020 H            1 16T301   0.0000
    53 H20         17.0121    -2.5888     1.5320 H            1 16T301   0.0000
    54 H21         17.9886     1.0884     3.1107 H            1 16T301   0.0000
    55 H22         15.9752    -0.3023     8.6002 H            1 16T301   0.0000
@<TRIPOS>BOND
     1    1    2       1
     2    2    3       2
     3    2    8       1
     4    3    4       1
     5    4    5       1
     6    4   10       1
     7    5    6       2
     8    5    7       1
     9    7    8       1
    10    8    9       2
    11   10   11       1
    12   10   15       1
    13   11   12       1
    14   12   13       1
    15   13   14       1
    16   14   15       1
    17   14   16       1
    18   16   17       2
    19   16   18       2
    20   16   19       1
    21   19   20      ar
    22   19   24      ar
    23   20   21      ar
    24   21   22      ar
    25   22   23      ar
    26   22   33       1
    27   23   24      ar
    28   23   25       1
    29   25   26       1
    30   26   27      ar
    31   26   31      ar
    32   27   28      ar
    33   28   29      ar
    34   29   30      ar
    35   30   31      ar
    36   30   32       1
    37    1   34       1
    38    1   35       1
    39    1   36       1
    40    3   37       1
    41    7   38       1
    42   10   39       1
    43   11   40       1
    44   11   41       1
    45   12   42       1
    46   12   43       1
    47   13   44       1
    48   13   45       1
    49   15   46       1
    50   15   47       1
    51   20   48       1
    52   21   49       1
    53   24   50       1
    54   27   51       1
    55   28   52       1
    56   29   53       1
    57   31   54       1
    58   33   55       1
@<TRIPOS>SUBSTRUCTURE
     1 16T301      1 GROUP             4 A     16T     0 **** 16T A 301
