@<TRIPOS>MOLECULE
1y7u_COA_1_ligand
   80    82     1     0     0
SMALL
NO_CHARGES


@<TRIPOS>ATOM
     1 N1A         -1.4530    10.6740    25.6730 N.ar         1 COA201   0.0000
     2 C2A         -0.8800    11.5910    26.4840 C.ar         1 COA201   0.0000
     3 N3A         -0.0140    11.1960    27.4550 N.ar         1 COA201   0.0000
     4 C4A          0.2710     9.9200    27.6120 C.ar         1 COA201   0.0000
     5 C5A         -0.2640     9.0000    26.7820 C.ar         1 COA201   0.0000
     6 C6A         -1.1450     9.3630    25.7850 C.ar         1 COA201   0.0000
     7 N6A         -1.4550     8.5680    24.7630 N.pl3        1 COA201   0.0000
     8 N7A          0.1960     7.8400    27.1670 N.2          1 COA201   0.0000
     9 C8A          1.0180     8.0040    28.1730 C.2          1 COA201   0.0000
    10 N9A          1.0630     9.2850    28.4860 N.pl3        1 COA201   0.0000
    11 C1B          1.9500     9.8460    29.5100 C.3          1 COA201   0.0000
    12 C2B          1.2920    10.1900    30.8210 C.3          1 COA201   0.0000
    13 O2B          0.9790    11.5540    30.7730 O.3          1 COA201   0.0000
    14 C3B          2.3320     9.9290    31.8870 C.3          1 COA201   0.0000
    15 O3B          2.6590    11.1920    32.3020 O.3          1 COA201   0.0000
    16 P3B          3.1640    11.7040    33.6400 P.3          1 COA201   0.0000
    17 O7A          3.6790    12.9620    33.3710 O.co2        1 COA201   0.0000
    18 O8A          4.1490    11.0120    34.3410 O.co2        1 COA201  -1.0000
    19 O9A          2.1060    11.9380    34.4940 O.co2        1 COA201  -1.0000
    20 C4B          3.4630     9.3660    31.0760 C.3          1 COA201   0.0000
    21 O4B          2.8640     8.8870    29.9250 O.3          1 COA201   0.0000
    22 C5B          4.1820     8.2150    31.6990 C.3          1 COA201   0.0000
    23 O5B          3.6190     7.0210    31.2260 O.3          1 COA201   0.0000
    24 P1A          3.7920     5.6060    31.9370 P.3          1 COA201   0.0000
    25 O1A          2.5110     5.0580    32.3910 O.co2        1 COA201   0.0000
    26 O2A          4.6700     5.7050    33.1000 O.co2        1 COA201  -1.0000
    27 O3A          4.3310     4.5710    30.8650 O.3          1 COA201   0.0000
    28 P2A          3.8540     4.3060    29.3750 P.3          1 COA201   0.0000
    29 O4A          2.3950     4.2560    29.2110 O.co2        1 COA201   0.0000
    30 O5A          4.4340     3.0370    29.0170 O.co2        1 COA201  -1.0000
    31 O6A          4.4770     5.4470    28.4690 O.3          1 COA201   0.0000
    32 CBP          3.9930     5.2430    26.0650 C.3          1 COA201   0.0000
    33 CCP          5.0310     5.3160    27.1780 C.3          1 COA201   0.0000
    34 CDP          2.6930     4.6190    26.5030 C.3          1 COA201   0.0000
    35 CEP          3.6810     6.6320    25.5740 C.3          1 COA201   0.0000
    36 CAP          4.4460     4.1990    25.0440 C.3          1 COA201   0.0000
    37 OAP          3.5990     3.0760    25.0590 O.3          1 COA201   0.0000
    38 C9P          5.1990     4.4740    23.7860 C.2          1 COA201   0.0000
    39 O9P          6.5590     4.2530    23.7610 O.2          1 COA201   0.0000
    40 N8P          4.5620     4.9130    22.7480 N.am         1 COA201   0.0000
    41 C7P          5.1570     5.8300    21.8320 C.3          1 COA201   0.0000
    42 C6P          6.6130     5.5900    21.4870 C.3          1 COA201   0.0000
    43 C5P          6.9900     6.0970    20.1330 C.2          1 COA201   0.0000
    44 O5P          7.9490     5.5900    19.5150 O.2          1 COA201   0.0000
    45 N4P          6.2610     7.0720    19.6600 N.am         1 COA201   0.0000
    46 C3P          6.1490     7.2850    18.2650 C.3          1 COA201   0.0000
    47 C2P          5.1890     6.2830    17.6970 C.3          1 COA201   0.0000
    48 S1P          6.0140     5.1100    16.6790 S.3          1 COA201   0.0000
    49 H2A         -1.0933    12.5613    26.3697 H            1 COA201   0.0000
    50 H6A1        -1.2436     7.5916    24.8070 H            1 COA201   0.0000
    51 H6A2        -1.8993     8.9473    23.9514 H            1 COA201   0.0000
    52 H8A          1.5290     7.2761    28.6301 H            1 COA201   0.0000
    53 H1B          2.4309    10.6443    29.1475 H            1 COA201   0.0000
    54 H2B          0.4731     9.6360    30.9711 H            1 COA201   0.0000
    55 H7           1.8175    12.0842    30.6475 H            1 COA201   0.0000
    56 H3B          2.0193     9.3273    32.6220 H            1 COA201   0.0000
    57 H4B          4.1127    10.0908    30.8467 H            1 COA201   0.0000
    58 H5B1         4.0892     8.2594    32.6937 H            1 COA201   0.0000
    59 H5B2         5.1505     8.2506    31.4526 H            1 COA201   0.0000
    60 HCP1         5.5781     4.4793    27.1536 H            1 COA201   0.0000
    61 HCP2         5.6210     6.1051    27.0070 H            1 COA201   0.0000
    62 HDP1         2.0561     4.5998    25.7323 H            1 COA201   0.0000
    63 HDP2         2.8613     3.6855    26.8197 H            1 COA201   0.0000
    64 HDP3         2.2989     5.1577    27.2477 H            1 COA201   0.0000
    65 HEP1         2.9997     6.5822    24.8437 H            1 COA201   0.0000
    66 HEP2         3.3206     7.1794    26.3293 H            1 COA201   0.0000
    67 HEP3         4.5155     7.0567    25.2230 H            1 COA201   0.0000
    68 HAP          5.2000     3.8089    25.5724 H            1 COA201   0.0000
    69 H21          3.5740     2.6651    24.1476 H            1 COA201   0.0000
    70 H8P          3.6264     4.6003    22.5839 H            1 COA201   0.0000
    71 H7P1         5.0853     6.7453    22.2283 H            1 COA201   0.0000
    72 H7P2         4.6328     5.7931    20.9812 H            1 COA201   0.0000
    73 H6P1         6.7886     4.6060    21.5179 H            1 COA201   0.0000
    74 H6P2         7.1810     6.0515    22.1684 H            1 COA201   0.0000
    75 H4P          5.7754     7.6762    20.2918 H            1 COA201   0.0000
    76 H3P1         7.0449     7.1728    17.8352 H            1 COA201   0.0000
    77 H3P2         5.8101     8.2099    18.0927 H            1 COA201   0.0000
    78 H2P1         4.5032     6.7632    17.1501 H            1 COA201   0.0000
    79 H2P2         4.7385     5.8015    18.4488 H            1 COA201   0.0000
    80 H1P          5.3489     4.4573    16.3162 H            1 COA201   0.0000
@<TRIPOS>BOND
     1    1    2      ar
     2    1    6      ar
     3    2    3      ar
     4    3    4      ar
     5    4    5      ar
     6    4   10       1
     7    5    6      ar
     8    5    8       1
     9    6    7       1
    10    8    9       2
    11    9   10       1
    12   10   11       1
    13   11   12       1
    14   11   21       1
    15   12   13       1
    16   12   14       1
    17   14   15       1
    18   14   20       1
    19   15   16       1
    20   16   17      ar
    21   16   18      ar
    22   16   19      ar
    23   20   21       1
    24   20   22       1
    25   22   23       1
    26   23   24       1
    27   24   25      ar
    28   24   26      ar
    29   24   27       1
    30   27   28       1
    31   28   29      ar
    32   28   30      ar
    33   28   31       1
    34   31   33       1
    35   32   33       1
    36   32   34       1
    37   32   35       1
    38   32   36       1
    39   36   37       1
    40   36   38       1
    41   38   39       2
    42   38   40      am
    43   40   41       1
    44   41   42       1
    45   42   43       1
    46   43   44       2
    47   43   45      am
    48   45   46       1
    49   46   47       1
    50   47   48       1
    51    2   49       1
    52    7   50       1
    53    7   51       1
    54    9   52       1
    55   11   53       1
    56   12   54       1
    57   13   55       1
    58   14   56       1
    59   48   80       1
    60   47   79       1
    61   20   57       1
    62   22   58       1
    63   22   59       1
    64   47   78       1
    65   46   77       1
    66   33   60       1
    67   33   61       1
    68   34   62       1
    69   34   63       1
    70   34   64       1
    71   35   65       1
    72   35   66       1
    73   35   67       1
    74   36   68       1
    75   37   69       1
    76   40   70       1
    77   41   71       1
    78   41   72       1
    79   42   73       1
    80   42   74       1
    81   45   75       1
    82   46   76       1
@<TRIPOS>SUBSTRUCTURE
     1 COA201      1 GROUP             4 A     COA     0 **** COA A 201
