@<TRIPOS>MOLECULE
2p8u_COA_2_ligand
   80    82     1     0     0
SMALL
NO_CHARGES


@<TRIPOS>ATOM
     1 N1A         51.3160    11.7580   106.4770 N.ar         1 COA601   0.0000
     2 C2A         51.7270    11.4970   105.2420 C.ar         1 COA601   0.0000
     3 N3A         50.9030    10.9690   104.3520 N.ar         1 COA601   0.0000
     4 C4A         49.6190    10.7010   104.7020 C.ar         1 COA601   0.0000
     5 C5A         49.1700    10.9560   105.9790 C.ar         1 COA601   0.0000
     6 C6A         50.0660    11.4920   106.8830 C.ar         1 COA601   0.0000
     7 N6A         49.6560    11.7750   108.1160 N.pl3        1 COA601   0.0000
     8 N7A         47.8800    10.6230   106.0500 N.2          1 COA601   0.0000
     9 C8A         47.5130    10.1540   104.8610 C.2          1 COA601   0.0000
    10 N9A         48.5780    10.1940   104.0440 N.pl3        1 COA601   0.0000
    11 C1B         48.6120     9.8320   102.6050 C.3          1 COA601   0.0000
    12 C2B         47.8760     8.6090   102.1330 C.3          1 COA601   0.0000
    13 O2B         48.7080     7.4680   102.3400 O.3          1 COA601   0.0000
    14 C3B         47.7500     8.9860   100.6430 C.3          1 COA601   0.0000
    15 O3B         49.0080     8.9700    99.9860 O.3          1 COA601   0.0000
    16 P3B         49.5710     7.6570    99.1660 P.3          1 COA601   0.0000
    17 O7A         50.8780     8.1410    98.4200 O.co2        1 COA601   0.0000
    18 O8A         48.5010     7.2650    98.0350 O.co2        1 COA601  -1.0000
    19 O9A         49.7660     6.5630   100.1620 O.co2        1 COA601  -1.0000
    20 C4B         47.3920    10.4870   100.6930 C.3          1 COA601   0.0000
    21 O4B         47.7770    10.9120   102.0300 O.3          1 COA601   0.0000
    22 C5B         45.9130    10.7020   100.4700 C.3          1 COA601   0.0000
    23 O5B         45.0980     9.7730   101.2410 O.3          1 COA601   0.0000
    24 P1A         43.8990    10.2620   102.1330 P.3          1 COA601   0.0000
    25 O1A         44.4290    11.1580   103.1970 O.co2        1 COA601   0.0000
    26 O2A         43.1510     9.0360   102.4710 O.co2        1 COA601  -1.0000
    27 O3A         42.9000    11.2630   101.2240 O.3          1 COA601   0.0000
    28 P2A         41.7740    10.6720   100.2520 P.3          1 COA601   0.0000
    29 O4A         40.5710    10.4450   101.0570 O.co2        1 COA601   0.0000
    30 O5A         42.3150     9.5830    99.4120 O.co2        1 COA601  -1.0000
    31 O6A         41.4690    11.9770    99.3450 O.3          1 COA601   0.0000
    32 CBP         41.5290    12.6130    97.0160 C.3          1 COA601   0.0000
    33 CCP         42.2890    12.1270    98.2400 C.3          1 COA601   0.0000
    34 CDP         42.5450    12.9700    95.9330 C.3          1 COA601   0.0000
    35 CEP         40.6860    11.4300    96.5220 C.3          1 COA601   0.0000
    36 CAP         40.6820    13.8530    97.3920 C.3          1 COA601   0.0000
    37 OAP         41.5580    14.9450    97.7200 O.3          1 COA601   0.0000
    38 C9P         39.8090    14.3060    96.2130 C.2          1 COA601   0.0000
    39 O9P         38.7680    13.6910    95.9630 O.2          1 COA601   0.0000
    40 N8P         40.2710    15.3710    95.5240 N.am         1 COA601   0.0000
    41 C7P         39.5530    15.9760    94.3770 C.3          1 COA601   0.0000
    42 C6P         39.6340    15.1650    93.0910 C.3          1 COA601   0.0000
    43 C5P         41.0560    15.0910    92.5510 C.2          1 COA601   0.0000
    44 O5P         41.8810    15.9520    92.8310 O.2          1 COA601   0.0000
    45 N4P         41.2940    14.0210    91.8020 N.am         1 COA601   0.0000
    46 C3P         42.5780    13.7350    91.1510 C.3          1 COA601   0.0000
    47 C2P         42.3430    13.2100    89.7340 C.3          1 COA601   0.0000
    48 S1P         41.6240    14.5130    88.6750 S.3          1 COA601   0.0000
    49 H2A         52.6705    11.7019   104.9815 H            1 COA601   0.0000
    50 H6A1        48.7178    11.5655   108.3914 H            1 COA601   0.0000
    51 H6A2        50.2859    12.1973   108.7678 H            1 COA601   0.0000
    52 H8A         46.5999     9.8273   104.6170 H            1 COA601   0.0000
    53 H1B         49.5440     9.8594   102.2436 H            1 COA601   0.0000
    54 H2B         46.9841     8.5111   102.5745 H            1 COA601   0.0000
    55 H7          48.8841     7.0204   101.4633 H            1 COA601   0.0000
    56 H3B         47.0600     8.4418   100.1657 H            1 COA601   0.0000
    57 H4B         47.9194    10.9891   100.0076 H            1 COA601   0.0000
    58 H5B1        45.7124    10.5761    99.4984 H            1 COA601   0.0000
    59 H5B2        45.6793    11.6360   100.7404 H            1 COA601   0.0000
    60 HCP1        42.7075    11.2438    98.0284 H            1 COA601   0.0000
    61 HCP2        43.0041    12.7909    98.4585 H            1 COA601   0.0000
    62 HDP1        42.0638    13.2926    95.1179 H            1 COA601   0.0000
    63 HDP2        43.1513    13.6907    96.2693 H            1 COA601   0.0000
    64 HDP3        43.0851    12.1605    95.7028 H            1 COA601   0.0000
    65 HEP1        40.1663    11.7057    95.7134 H            1 COA601   0.0000
    66 HEP2        41.2880    10.6668    96.2871 H            1 COA601   0.0000
    67 HEP3        40.0543    11.1465    97.2435 H            1 COA601   0.0000
    68 HAP         40.1019    13.6389    98.1779 H            1 COA601   0.0000
    69 H21         41.3888    15.2369    98.6614 H            1 COA601   0.0000
    70 H8P         41.1435    15.7729    95.8020 H            1 COA601   0.0000
    71 H7P1        39.9449    16.8794    94.2031 H            1 COA601   0.0000
    72 H7P2        38.5894    16.0730    94.6262 H            1 COA601   0.0000
    73 H6P1        39.0490    15.5931    92.4021 H            1 COA601   0.0000
    74 H6P2        39.3095    14.2369    93.2737 H            1 COA601   0.0000
    75 H4P         40.5491    13.3665    91.6728 H            1 COA601   0.0000
    76 H3P1        43.0716    13.0458    91.6815 H            1 COA601   0.0000
    77 H3P2        43.1208    14.5737    91.1072 H            1 COA601   0.0000
    78 H2P1        41.7143    12.4333    89.7716 H            1 COA601   0.0000
    79 H2P2        43.2152    12.9143    89.3444 H            1 COA601   0.0000
    80 H1P         41.9132    14.3705    87.7284 H            1 COA601   0.0000
@<TRIPOS>BOND
     1    1    2      ar
     2    1    6      ar
     3    2    3      ar
     4    3    4      ar
     5    4    5      ar
     6    4   10       1
     7    5    6      ar
     8    5    8       1
     9    6    7       1
    10    8    9       2
    11    9   10       1
    12   10   11       1
    13   11   12       1
    14   11   21       1
    15   12   13       1
    16   12   14       1
    17   14   15       1
    18   14   20       1
    19   15   16       1
    20   16   17      ar
    21   16   18      ar
    22   16   19      ar
    23   20   21       1
    24   20   22       1
    25   22   23       1
    26   23   24       1
    27   24   25      ar
    28   24   26      ar
    29   24   27       1
    30   27   28       1
    31   28   29      ar
    32   28   30      ar
    33   28   31       1
    34   31   33       1
    35   32   33       1
    36   32   34       1
    37   32   35       1
    38   32   36       1
    39   36   37       1
    40   36   38       1
    41   38   39       2
    42   38   40      am
    43   40   41       1
    44   41   42       1
    45   42   43       1
    46   43   44       2
    47   43   45      am
    48   45   46       1
    49   46   47       1
    50   47   48       1
    51    2   49       1
    52    7   50       1
    53    7   51       1
    54    9   52       1
    55   11   53       1
    56   12   54       1
    57   13   55       1
    58   14   56       1
    59   48   80       1
    60   47   79       1
    61   20   57       1
    62   22   58       1
    63   22   59       1
    64   47   78       1
    65   46   77       1
    66   33   60       1
    67   33   61       1
    68   34   62       1
    69   34   63       1
    70   34   64       1
    71   35   65       1
    72   35   66       1
    73   35   67       1
    74   36   68       1
    75   37   69       1
    76   40   70       1
    77   41   71       1
    78   41   72       1
    79   42   73       1
    80   42   74       1
    81   45   75       1
    82   46   76       1
@<TRIPOS>SUBSTRUCTURE
     1 COA601      1 GROUP             4 B     COA     0 **** COA B 601
