@<TRIPOS>MOLECULE
3bc1_GNP_1_ligand
   45    47     1     0     0
SMALL
NO_CHARGES


@<TRIPOS>ATOM
     1 PG           6.6170     7.3310   -26.2730 P.3          1 GNP195   0.0000
     2 O1G          7.2910     8.2570   -25.2980 O.co2        1 GNP195   0.0000
     3 O2G          5.3070     6.7640   -25.7960 O.co2        1 GNP195  -1.0000
     4 O3G          7.6520     6.3250   -26.7090 O.co2        1 GNP195  -1.0000
     5 N3B          6.2180     8.1150   -27.6130 N.3          1 GNP195   0.0000
     6 PB           7.1860     8.9840   -28.5320 P.3          1 GNP195   0.0000
     7 O1B          7.3640    10.3670   -28.0190 O.co2        1 GNP195   0.0000
     8 O2B          8.3900     8.2000   -28.8390 O.co2        1 GNP195  -1.0000
     9 O3A          6.3950     9.1690   -29.8530 O.3          1 GNP195   0.0000
    10 PA           6.5800     8.4430   -31.2100 P.3          1 GNP195   0.0000
    11 O1A          7.8480     8.8770   -31.8480 O.co2        1 GNP195   0.0000
    12 O2A          6.2950     6.9960   -31.0610 O.co2        1 GNP195  -1.0000
    13 O5'          5.4400     9.0380   -32.1490 O.3          1 GNP195   0.0000
    14 C5'          4.0600     8.9890   -31.7650 C.3          1 GNP195   0.0000
    15 C4'          3.1210     9.0050   -32.9690 C.3          1 GNP195   0.0000
    16 O4'          3.2030    10.2870   -33.6290 O.3          1 GNP195   0.0000
    17 C3'          3.4110     7.9910   -34.0670 C.3          1 GNP195   0.0000
    18 O3'          2.1910     7.5440   -34.6690 O.3          1 GNP195   0.0000
    19 C2'          4.2760     8.7640   -35.0530 C.3          1 GNP195   0.0000
    20 O2'          4.1460     8.3010   -36.3780 O.3          1 GNP195   0.0000
    21 C1'          3.6880    10.1600   -34.9500 C.3          1 GNP195   0.0000
    22 N9           4.6150    11.2600   -35.1880 N.pl3        1 GNP195   0.0000
    23 C8           5.7850    11.5380   -34.5140 C.2          1 GNP195   0.0000
    24 N7           6.3880    12.6120   -34.9460 N.2          1 GNP195   0.0000
    25 C5           5.5800    13.0760   -35.9750 C.2          1 GNP195   0.0000
    26 C6           5.7180    14.2180   -36.8110 C.2          1 GNP195   0.0000
    27 O6           6.6390    15.0550   -36.8030 O.2          1 GNP195   0.0000
    28 N1           4.6720    14.3280   -37.7380 N.pl3        1 GNP195   0.0000
    29 C2           3.6080    13.4470   -37.8040 C.2          1 GNP195   0.0000
    30 N2           2.6760    13.6760   -38.7430 N.pl3        1 GNP195   0.0000
    31 N3           3.4620    12.3830   -37.0210 N.2          1 GNP195   0.0000
    32 C4           4.4860    12.2550   -36.1390 C.2          1 GNP195   0.0000
    33 H3B          5.8436     7.4148   -28.2209 H            1 GNP195   0.0000
    34 H5'1         3.8582     9.7816   -31.1896 H            1 GNP195   0.0000
    35 H5'2         3.9009     8.1501   -31.2445 H            1 GNP195   0.0000
    36 H4'          2.1841     8.8696   -32.6468 H            1 GNP195   0.0000
    37 H3'          3.9191     7.2139   -33.6955 H            1 GNP195   0.0000
    38 H6           2.3595     7.3039   -35.6250 H            1 GNP195   0.0000
    39 H2'          5.2340     8.7590   -34.7664 H            1 GNP195   0.0000
    40 H8           4.8216     7.5836   -36.5482 H            1 GNP195   0.0000
    41 H1'          2.9210    10.2376   -35.5869 H            1 GNP195   0.0000
    42 H10          6.1369    10.9727   -33.7679 H            1 GNP195   0.0000
    43 H11          4.6967    15.0869   -38.3887 H            1 GNP195   0.0000
    44 H12          1.8895    13.0641   -38.8265 H            1 GNP195   0.0000
    45 H13          2.7684    14.4584   -39.3589 H            1 GNP195   0.0000
@<TRIPOS>BOND
     1    1    2      ar
     2    1    3      ar
     3    1    4      ar
     4    1    5       1
     5    5    6       1
     6    6    7      ar
     7    6    8      ar
     8    6    9       1
     9    9   10       1
    10   10   11      ar
    11   10   12      ar
    12   10   13       1
    13   13   14       1
    14   14   15       1
    15   15   16       1
    16   15   17       1
    17   16   21       1
    18   17   18       1
    19   17   19       1
    20   19   20       1
    21   19   21       1
    22   21   22       1
    23   22   23       1
    24   22   32       1
    25   23   24       2
    26   24   25       1
    27   25   26       1
    28   25   32       2
    29   26   27       2
    30   26   28       1
    31   28   29       1
    32   29   30       1
    33   29   31       2
    34   31   32       1
    35   30   45       1
    36   30   44       1
    37    5   33       1
    38   28   43       1
    39   23   42       1
    40   14   34       1
    41   14   35       1
    42   15   36       1
    43   17   37       1
    44   18   38       1
    45   19   39       1
    46   20   40       1
    47   21   41       1
@<TRIPOS>SUBSTRUCTURE
     1 GNP195      1 GROUP             4 A     GNP     0 **** GNP A 195
