@<TRIPOS>MOLECULE
3svj_4LI_1_ligand
   72    76     1     0     0
SMALL
NO_CHARGES


@<TRIPOS>ATOM
     1 C1          20.0290    -8.6810     0.1580 C.ar         1 4LI207   0.0000
     2 C2          19.2690    -7.6980    -0.4310 C.ar         1 4LI207   0.0000
     3 C3          21.3210   -12.6650     8.8860 C.ar         1 4LI207   0.0000
     4 C4          22.6600   -12.8690     8.6580 C.ar         1 4LI207   0.0000
     5 C5          20.8740   -11.4310     9.2950 C.ar         1 4LI207   0.0000
     6 C6          20.4940    -8.5240     1.4440 C.ar         1 4LI207   0.0000
     7 C7          18.9760    -6.5540     0.2720 C.ar         1 4LI207   0.0000
     8 C8          23.5280   -11.8210     8.8510 C.ar         1 4LI207   0.0000
     9 C9          21.7550   -10.3910     9.4830 C.ar         1 4LI207   0.0000
    10 C10         20.2060    -7.3830     2.1540 C.ar         1 4LI207   0.0000
    11 C11         23.0990   -10.5790     9.2600 C.ar         1 4LI207   0.0000
    12 C12         19.4450    -6.4050     1.5550 C.ar         1 4LI207   0.0000
    13 C13         23.3600    -7.5640     6.5550 C.ar         1 4LI207   0.0000
    14 C14         25.0340    -6.5900     7.7530 C.ar         1 4LI207   0.0000
    15 C15         24.0680    -8.5070     8.4870 C.ar         1 4LI207   0.0000
    16 C16         24.9470   -12.0580     8.5980 C.2          1 4LI207   0.0000
    17 C17         26.0060    -4.5660     5.7340 C.2          1 4LI207   0.0000
    18 C18         20.8040    -8.4960     4.1170 C.3          1 4LI207   0.0000
    19 C19         21.8960    -6.4250     3.4160 C.3          1 4LI207   0.0000
    20 C20         21.2920    -8.2640     5.5330 C.3          1 4LI207   0.0000
    21 C21         22.4590    -6.2390     4.8060 C.3          1 4LI207   0.0000
    22 C22         26.3060    -3.2010     7.7740 C.3          1 4LI207   0.0000
    23 C23         26.2000    -5.3140     9.3230 C.3          1 4LI207   0.0000
    24 C24         25.5850    -4.3850     7.1670 C.3          1 4LI207   0.0000
    25 C25         21.2500    -9.0650     9.9290 C.3          1 4LI207   0.0000
    26 C26         26.9900   -12.9670     9.5400 C.3          1 4LI207   0.0000
    27 C27         27.3660    -5.8800     4.2280 C.3          1 4LI207   0.0000
    28 N28         24.2420    -6.5700     6.6820 N.ar         1 4LI207   0.0000
    29 N29         23.2430    -8.5610     7.4370 N.ar         1 4LI207   0.0000
    30 N30         24.9740    -7.5460     8.6820 N.ar         1 4LI207   0.0000
    31 N31         20.6730    -7.2050     3.4680 N.pl3        1 4LI207   0.0000
    32 N32         22.5410    -7.5470     5.4150 N.pl3        1 4LI207   0.0000
    33 N33         25.9840    -5.5650     7.9160 N.pl3        1 4LI207   0.0000
    34 N34         23.9900    -9.5200     9.4510 N.pl3        1 4LI207   0.0000
    35 N35         25.6090   -12.5910     9.6650 N.am         1 4LI207   0.0000
    36 N36         26.9060    -5.5850     5.5590 N.am         1 4LI207   0.0000
    37 O37         25.4250   -11.7920     7.5050 O.2          1 4LI207   0.0000
    38 O38         25.5720    -3.8780     4.8220 O.2          1 4LI207   0.0000
    39 S39         26.3700    -3.5310     9.5500 S.3          1 4LI207   0.0000
    40 CL40        19.0750    -4.9710     2.4310 Cl           1 4LI207   0.0000
    41 H1          20.2450    -9.5144    -0.3507 H            1 4LI207   0.0000
    42 H2          18.9316    -7.8148    -1.3651 H            1 4LI207   0.0000
    43 H3          20.6715   -13.4139     8.7545 H            1 4LI207   0.0000
    44 H4          22.9964   -13.7616     8.3578 H            1 4LI207   0.0000
    45 H5          19.8978   -11.2877     9.4577 H            1 4LI207   0.0000
    46 H6          21.0450    -9.2449     1.8644 H            1 4LI207   0.0000
    47 H7          18.4242    -5.8336    -0.1481 H            1 4LI207   0.0000
    48 H8          19.9171    -8.9576     4.1355 H            1 4LI207   0.0000
    49 H9          21.4630    -9.0601     3.6195 H            1 4LI207   0.0000
    50 H10         22.5677    -6.9020     2.8492 H            1 4LI207   0.0000
    51 H11         21.6993    -5.5293     3.0172 H            1 4LI207   0.0000
    52 H12         21.4361    -9.1376     5.9978 H            1 4LI207   0.0000
    53 H13         20.6267    -7.7201     6.0444 H            1 4LI207   0.0000
    54 H14         21.8565    -5.6486     5.3431 H            1 4LI207   0.0000
    55 H15         23.3691    -5.8279     4.7544 H            1 4LI207   0.0000
    56 H16         25.8029    -2.3558     7.5937 H            1 4LI207   0.0000
    57 H17         27.2301    -3.1252     7.3993 H            1 4LI207   0.0000
    58 H18         27.0334    -5.7760     9.6264 H            1 4LI207   0.0000
    59 H19         25.4209    -5.6509     9.8516 H            1 4LI207   0.0000
    60 H20         24.5951    -4.2555     7.2244 H            1 4LI207   0.0000
    61 H21         22.0163    -8.4283    10.0153 H            1 4LI207   0.0000
    62 H22         20.5984    -8.7132     9.2569 H            1 4LI207   0.0000
    63 H23         20.7958    -9.1620    10.8146 H            1 4LI207   0.0000
    64 H24         27.3148   -13.3371    10.4104 H            1 4LI207   0.0000
    65 H25         27.0831   -13.6618     8.8269 H            1 4LI207   0.0000
    66 H26         27.5334   -12.1638     9.2958 H            1 4LI207   0.0000
    67 H27         28.0133    -6.6416     4.2602 H            1 4LI207   0.0000
    68 H28         26.5864    -6.1292     3.6535 H            1 4LI207   0.0000
    69 H29         27.8181    -5.0743     3.8453 H            1 4LI207   0.0000
    70 H30         24.5661    -9.4856    10.2676 H            1 4LI207   0.0000
    71 H31         25.1328   -12.7201    10.5348 H            1 4LI207   0.0000
    72 H32         27.2365    -6.1131     6.3412 H            1 4LI207   0.0000
@<TRIPOS>BOND
     1    1    2      ar
     2    1    6      ar
     3    2    7      ar
     4    3    4      ar
     5    3    5      ar
     6    4    8      ar
     7    5    9      ar
     8    6   10      ar
     9    7   12      ar
    10    8   11      ar
    11    8   16       1
    12    9   11      ar
    13    9   25       1
    14   10   12      ar
    15   10   31       1
    16   11   34       1
    17   12   40       1
    18   13   28      ar
    19   13   29      ar
    20   13   32       1
    21   14   28      ar
    22   14   30      ar
    23   14   33       1
    24   15   29      ar
    25   15   30      ar
    26   15   34       1
    27   16   35      am
    28   16   37       2
    29   17   24       1
    30   17   36      am
    31   17   38       2
    32   18   20       1
    33   18   31       1
    34   19   21       1
    35   19   31       1
    36   20   32       1
    37   21   32       1
    38   22   24       1
    39   22   39       1
    40   23   33       1
    41   23   39       1
    42   24   33       1
    43   26   35       1
    44   27   36       1
    45    1   41       1
    46    2   42       1
    47    3   43       1
    48    4   44       1
    49    5   45       1
    50    6   46       1
    51    7   47       1
    52   18   48       1
    53   18   49       1
    54   19   50       1
    55   19   51       1
    56   20   52       1
    57   20   53       1
    58   21   54       1
    59   21   55       1
    60   22   56       1
    61   22   57       1
    62   23   58       1
    63   23   59       1
    64   24   60       1
    65   25   61       1
    66   25   62       1
    67   25   63       1
    68   26   64       1
    69   26   65       1
    70   26   66       1
    71   27   67       1
    72   27   68       1
    73   27   69       1
    74   34   70       1
    75   35   71       1
    76   36   72       1
@<TRIPOS>SUBSTRUCTURE
     1 4LI207      1 GROUP             4 P     4LI     0 **** 4LI P 207
