@<TRIPOS>MOLECULE
4gaa_BES_2_ligand
   46    46     1     0     0
SMALL
NO_CHARGES


@<TRIPOS>ATOM
     1 N2         -50.0060     9.7730    28.6070 N.4          1 BES702   1.0000
     2 C1         -51.1470     9.5810    29.4760 C.3          1 BES702   0.0000
     3 C6         -52.3830     9.2670    28.6350 C.3          1 BES702   0.0000
     4 C7         -52.2020     7.9820    27.8480 C.ar         1 BES702   0.0000
     5 C8         -52.4130     7.9940    26.4620 C.ar         1 BES702   0.0000
     6 C12        -51.8270     6.7810    28.4760 C.ar         1 BES702   0.0000
     7 C9         -52.2620     6.8130    25.7220 C.ar         1 BES702   0.0000
     8 C11        -51.6700     5.6080    27.7250 C.ar         1 BES702   0.0000
     9 C10        -51.9020     5.6180    26.3500 C.ar         1 BES702   0.0000
    10 C2         -51.3250    10.8080    30.3620 C.3          1 BES702   0.0000
    11 O2         -50.0520    11.3350    30.7570 O.3          1 BES702   0.0000
    12 C3         -52.1530    10.4840    31.5780 C.2          1 BES702   0.0000
    13 O3         -51.6500     9.8920    32.5190 O.2          1 BES702   0.0000
    14 N1         -53.4240    10.9000    31.5480 N.am         1 BES702   0.0000
    15 C4         -54.3890    10.6890    32.6270 C.3          1 BES702   0.0000
    16 C13        -54.3820    11.9890    33.4260 C.3          1 BES702   0.0000
    17 C14        -54.2000    11.8190    34.9340 C.3          1 BES702   0.0000
    18 C15        -53.2380    10.7230    35.3920 C.3          1 BES702   0.0000
    19 C16        -53.7930    13.1440    35.5580 C.3          1 BES702   0.0000
    20 C5         -55.7670    10.3820    32.1200 C.2          1 BES702   0.0000
    21 O1         -56.0650    10.7100    30.9500 O.co2        1 BES702   0.0000
    22 O4         -56.5640     9.7920    32.8840 O.co2        1 BES702  -1.0000
    23 H1         -49.6407    10.6950    28.7353 H            1 BES702   0.0000
    24 H2         -49.3002     9.1007    28.8302 H            1 BES702   0.0000
    25 H3         -50.9620     8.7945    30.0652 H            1 BES702   0.0000
    26 H4         -52.5428    10.0201    27.9969 H            1 BES702   0.0000
    27 H5         -53.1729     9.1698    29.2404 H            1 BES702   0.0000
    28 H6         -52.6708     8.8437    26.0020 H            1 BES702   0.0000
    29 H7         -51.6715     6.7637    29.4637 H            1 BES702   0.0000
    30 H8         -52.4136     6.8260    24.7336 H            1 BES702   0.0000
    31 H9         -51.3906     4.7608    28.1769 H            1 BES702   0.0000
    32 H10        -51.8114     4.7764    25.8176 H            1 BES702   0.0000
    33 H11        -51.8044    11.5090    29.8340 H            1 BES702   0.0000
    34 H12        -49.9654    12.2765    30.4314 H            1 BES702   0.0000
    35 H13        -53.7356    11.3883    30.7328 H            1 BES702   0.0000
    36 H14        -54.0757     9.9396    33.2103 H            1 BES702   0.0000
    37 H15        -55.2531    12.4543    33.2691 H            1 BES702   0.0000
    38 H16        -53.6339    12.5585    33.0854 H            1 BES702   0.0000
    39 H17        -55.0982    11.5884    35.3082 H            1 BES702   0.0000
    40 H18        -53.2017    10.7075    36.3912 H            1 BES702   0.0000
    41 H19        -53.5579     9.8370    35.0563 H            1 BES702   0.0000
    42 H20        -52.3250    10.9074    35.0281 H            1 BES702   0.0000
    43 H21        -53.6756    13.0260    36.5441 H            1 BES702   0.0000
    44 H22        -52.9315    13.4519    35.1543 H            1 BES702   0.0000
    45 H23        -54.5041    13.8258    35.3862 H            1 BES702   0.0000
    46 H24        -50.2887     9.6560    27.6549 H            1 BES702   0.0000
@<TRIPOS>BOND
     1    1    2       1
     2    2    3       1
     3    2   10       1
     4    3    4       1
     5    4    5      ar
     6    4    6      ar
     7    5    7      ar
     8    6    8      ar
     9    7    9      ar
    10    8    9      ar
    11   10   11       1
    12   10   12       1
    13   12   13       2
    14   12   14      am
    15   14   15       1
    16   15   16       1
    17   15   20       1
    18   16   17       1
    19   17   18       1
    20   17   19       1
    21   20   21      ar
    22   20   22      ar
    23    1   23       1
    24    1   24       1
    25    2   25       1
    26    3   26       1
    27    3   27       1
    28    5   28       1
    29    6   29       1
    30    7   30       1
    31    8   31       1
    32    9   32       1
    33   10   33       1
    34   11   34       1
    35   14   35       1
    36   15   36       1
    37   16   37       1
    38   16   38       1
    39   17   39       1
    40   18   40       1
    41   18   41       1
    42   18   42       1
    43   19   43       1
    44   19   44       1
    45   19   45       1
    46    1   46       1
@<TRIPOS>SUBSTRUCTURE
     1 BES702      1 GROUP             4 B     BES     0 **** BES B 702
