@<TRIPOS>MOLECULE
3q9b_B3N_2_ligand
   46    46     1     0     0
SMALL
NO_CHARGES


@<TRIPOS>ATOM
     1 O23         27.1380    23.4700    67.5200 O.2          1 B3N407   0.0000
     2 C13         26.3590    22.5730    67.8520 C.2          1 B3N407   0.0000
     3 C14         25.8760    21.5870    66.7910 C.ar         1 B3N407   0.0000
     4 C15         24.9760    20.5320    67.1170 C.ar         1 B3N407   0.0000
     5 C16         24.5350    19.6210    66.1010 C.ar         1 B3N407   0.0000
     6 C17         24.9810    19.7410    64.7360 C.ar         1 B3N407   0.0000
     7 N20         24.5370    18.8260    63.7050 N.pl3        1 B3N407   0.0000
     8 C22         23.6090    17.7210    63.9610 C.3          1 B3N407   0.0000
     9 C21         25.0020    18.9680    62.3200 C.3          1 B3N407   0.0000
    10 C18         25.8960    20.8110    64.4210 C.ar         1 B3N407   0.0000
    11 C19         26.3340    21.7180    65.4350 C.ar         1 B3N407   0.0000
    12 N12         25.9220    22.4540    69.1160 N.am         1 B3N407   0.0000
    13 C10         26.2880    23.3240    70.2300 C.3          1 B3N407   0.0000
    14 C9          26.5610    22.5730    71.5330 C.3          1 B3N407   0.0000
    15 C8          28.0490    22.2560    71.6630 C.3          1 B3N407   0.0000
    16 C7          28.3450    20.7640    71.6110 C.3          1 B3N407   0.0000
    17 C6          29.4440    20.3560    72.5760 C.3          1 B3N407   0.0000
    18 C5          29.7170    18.8500    72.4850 C.3          1 B3N407   0.0000
    19 C1          31.1860    18.6130    72.1960 C.2          1 B3N407   0.0000
    20 O2          31.5370    18.0010    71.1960 O.2          1 B3N407   0.0000
    21 N3          32.0710    19.1210    73.0680 N.am         1 B3N407   0.0000
    22 O4          33.2830    19.0020    72.8800 O.3          1 B3N407  -1.0000
    23 H1          24.6509    20.4264    68.0568 H            1 B3N407   0.0000
    24 H2          23.9033    18.8854    66.3455 H            1 B3N407   0.0000
    25 H3          23.4421    17.2221    63.1106 H            1 B3N407   0.0000
    26 H4          24.0066    17.1019    64.6382 H            1 B3N407   0.0000
    27 H5          22.7450    18.0851    64.3089 H            1 B3N407   0.0000
    28 H6          24.5920    18.2515    61.7556 H            1 B3N407   0.0000
    29 H7          24.7326    19.8645    61.9682 H            1 B3N407   0.0000
    30 H8          25.9982    18.8848    62.2926 H            1 B3N407   0.0000
    31 H9          26.2271    20.9192    63.4836 H            1 B3N407   0.0000
    32 H10         26.9680    22.4540    65.1977 H            1 B3N407   0.0000
    33 H11         25.2905    21.7037    69.3116 H            1 B3N407   0.0000
    34 H12         25.5387    23.9672    70.3875 H            1 B3N407   0.0000
    35 H13         27.1134    23.8291    69.9780 H            1 B3N407   0.0000
    36 H14         26.0407    21.7190    71.5363 H            1 B3N407   0.0000
    37 H15         26.2761    23.1399    72.3059 H            1 B3N407   0.0000
    38 H16         28.3765    22.6157    72.5367 H            1 B3N407   0.0000
    39 H17         28.5371    22.7042    70.9140 H            1 B3N407   0.0000
    40 H18         28.6287    20.5254    70.6822 H            1 B3N407   0.0000
    41 H19         27.5113    20.2632    71.8439 H            1 B3N407   0.0000
    42 H20         29.1623    20.5824    73.5084 H            1 B3N407   0.0000
    43 H21         30.2806    20.8551    72.3501 H            1 B3N407   0.0000
    44 H22         29.1659    18.4562    71.7493 H            1 B3N407   0.0000
    45 H23         29.4746    18.4153    73.3524 H            1 B3N407   0.0000
    46 H24         31.7425    19.6023    73.8807 H            1 B3N407   0.0000
@<TRIPOS>BOND
     1    1    2       2
     2    2    3       1
     3    2   12      am
     4    3    4      ar
     5    3   11      ar
     6    4    5      ar
     7    5    6      ar
     8    6    7       1
     9    6   10      ar
    10    7    8       1
    11    7    9       1
    12   10   11      ar
    13   12   13       1
    14   13   14       1
    15   14   15       1
    16   15   16       1
    17   16   17       1
    18   17   18       1
    19   18   19       1
    20   19   20       2
    21   19   21      am
    22   21   22       1
    23    4   23       1
    24    5   24       1
    25    8   25       1
    26    8   26       1
    27    8   27       1
    28    9   28       1
    29    9   29       1
    30    9   30       1
    31   10   31       1
    32   11   32       1
    33   12   33       1
    34   13   34       1
    35   13   35       1
    36   14   36       1
    37   14   37       1
    38   15   38       1
    39   15   39       1
    40   16   40       1
    41   16   41       1
    42   17   42       1
    43   17   43       1
    44   18   44       1
    45   18   45       1
    46   21   46       1
@<TRIPOS>SUBSTRUCTURE
     1 B3N407      1 GROUP             4 B     B3N     0 **** B3N B 407
