@<TRIPOS>MOLECULE
2uzv_SS5_1_ligand
   70    74     1     0     0
SMALL
NO_CHARGES


@<TRIPOS>ATOM
     1 C1          15.8390     7.8210     2.6620 C.ar         1 SS51351   0.0000
     2 C2          16.0990     6.5570     3.2560 C.ar         1 SS51351   0.0000
     3 C3          17.1640     6.4120     4.1710 C.ar         1 SS51351   0.0000
     4 C4          17.9860     7.5360     4.5020 C.ar         1 SS51351   0.0000
     5 C5          17.7320     8.8240     3.9050 C.ar         1 SS51351   0.0000
     6 C6          16.6610     8.9280     3.0000 C.ar         1 SS51351   0.0000
     7 C7          14.7300     8.0470     1.6700 C.3          1 SS51351   0.0000
     8 O8          18.4530    10.0330     4.1220 O.3          1 SS51351   0.0000
     9 C9          13.3670     8.3610     2.2770 C.3          1 SS51351   0.0000
    10 C10         12.3820     8.6650     1.1510 C.3          1 SS51351   0.0000
    11 O11         11.1130     9.0080     1.6850 O.3          1 SS51351   0.0000
    12 N12         12.8660     7.2070     3.0130 N.4          1 SS51351   1.0000
    13 C13         10.1090     9.3610     0.7670 C.ar         1 SS51351   0.0000
    14 C14         10.3140     9.6830    -0.6150 C.ar         1 SS51351   0.0000
    15 N15          9.2920    10.0160    -1.4290 N.ar         1 SS51351   0.0000
    16 C16          8.0170    10.0520    -0.9430 C.ar         1 SS51351   0.0000
    17 C17          7.7000     9.7550     0.4060 C.ar         1 SS51351   0.0000
    18 C18          8.7860     9.4100     1.2430 C.ar         1 SS51351   0.0000
    19 C19          5.1790     9.5660     0.0360 C.ar         1 SS51351   0.0000
    20 C20          3.8350     9.5690     0.4860 C.ar         1 SS51351   0.0000
    21 C21          3.5590     9.7880     1.8270 C.ar         1 SS51351   0.0000
    22 C22          4.6400    10.0180     2.7730 C.ar         1 SS51351   0.0000
    23 C23          5.9640    10.0140     2.3130 C.ar         1 SS51351   0.0000
    24 C24          6.2750     9.7850     0.9210 C.ar         1 SS51351   0.0000
    25 N25          2.4360     9.8550     2.5940 N.pl3        1 SS51351   0.0000
    26 N26          2.7140    10.0970     3.8830 N.2          1 SS51351   0.0000
    27 C27          4.0270    10.2120     4.0830 C.2          1 SS51351   0.0000
    28 C28          4.6560    10.4840     5.4310 C.3          1 SS51351   0.0000
    29 C29         19.5570    10.0170     5.0160 C.3          1 SS51351   0.0000
    30 C30         20.2370    11.4000     5.1820 C.3          1 SS51351   0.0000
    31 C31         21.5490    11.5040     4.3630 C.3          1 SS51351   0.0000
    32 C32         22.2310    12.8840     4.5410 C.3          1 SS51351   0.0000
    33 C33         21.2700    14.0560     4.2160 C.3          1 SS51351   0.0000
    34 C34         19.9310    13.9550     4.9800 C.3          1 SS51351   0.0000
    35 C35         19.2740    12.5690     4.8040 C.3          1 SS51351   0.0000
    36 H1          15.5272     5.7695     3.0258 H            1 SS51351   0.0000
    37 H2          17.3446     5.5217     4.5890 H            1 SS51351   0.0000
    38 H3          18.7398     7.4277     5.1501 H            1 SS51351   0.0000
    39 H4          16.4712     9.8148     2.5787 H            1 SS51351   0.0000
    40 H5          14.6381     7.2199     1.1155 H            1 SS51351   0.0000
    41 H6          14.9913     8.8139     1.0839 H            1 SS51351   0.0000
    42 H7          13.4397     9.1493     2.8880 H            1 SS51351   0.0000
    43 H8          12.2874     7.8575     0.5687 H            1 SS51351   0.0000
    44 H9          12.7285     9.4294     0.6072 H            1 SS51351   0.0000
    45 H10         11.9726     7.4246     3.4061 H            1 SS51351   0.0000
    46 H11         12.7761     6.4287     2.3916 H            1 SS51351   0.0000
    47 H12         11.2423     9.6599    -0.9861 H            1 SS51351   0.0000
    48 H13          7.2745    10.2986    -1.5658 H            1 SS51351   0.0000
    49 H14          8.6082     9.1941     2.2031 H            1 SS51351   0.0000
    50 H15          5.3644     9.4051    -0.9334 H            1 SS51351   0.0000
    51 H16          3.0887     9.4138    -0.1612 H            1 SS51351   0.0000
    52 H17          6.7084    10.1729     2.9616 H            1 SS51351   0.0000
    53 H18          1.5095     9.7371     2.2366 H            1 SS51351   0.0000
    54 H19          3.9389    10.5640     6.1234 H            1 SS51351   0.0000
    55 H20          5.2686     9.7310     5.6710 H            1 SS51351   0.0000
    56 H21          5.1764    11.3369     5.3900 H            1 SS51351   0.0000
    57 H22         20.2359     9.3699     4.6692 H            1 SS51351   0.0000
    58 H23         19.2342     9.7132     5.9124 H            1 SS51351   0.0000
    59 H24         20.4749    11.5053     6.1476 H            1 SS51351   0.0000
    60 H25         21.3376    11.3699     3.3948 H            1 SS51351   0.0000
    61 H26         22.1788    10.7899     4.6687 H            1 SS51351   0.0000
    62 H27         23.0201    12.9350     3.9289 H            1 SS51351   0.0000
    63 H28         22.5379    12.9721     5.4886 H            1 SS51351   0.0000
    64 H29         21.0798    14.0515     3.2343 H            1 SS51351   0.0000
    65 H30         21.7169    14.9152     4.4650 H            1 SS51351   0.0000
    66 H31         19.3070    14.6554     4.6336 H            1 SS51351   0.0000
    67 H32         20.1008    14.1116     5.9530 H            1 SS51351   0.0000
    68 H33         18.4651    12.5206     5.3899 H            1 SS51351   0.0000
    69 H34         19.0001    12.4628     3.8481 H            1 SS51351   0.0000
    70 H35         13.5055     6.9760     3.7463 H            1 SS51351   0.0000
@<TRIPOS>BOND
     1    1    2      ar
     2    1    6      ar
     3    1    7       1
     4    2    3      ar
     5    3    4      ar
     6    4    5      ar
     7    5    6      ar
     8    5    8       1
     9    7    9       1
    10    8   29       1
    11    9   10       1
    12    9   12       1
    13   10   11       1
    14   11   13       1
    15   13   14      ar
    16   13   18      ar
    17   14   15      ar
    18   15   16      ar
    19   16   17      ar
    20   17   18      ar
    21   17   24       1
    22   19   20      ar
    23   19   24      ar
    24   20   21      ar
    25   21   22      ar
    26   21   25       1
    27   22   23      ar
    28   22   27       1
    29   23   24      ar
    30   25   26       1
    31   26   27       2
    32   27   28       1
    33   29   30       1
    34   30   31       1
    35   30   35       1
    36   31   32       1
    37   32   33       1
    38   33   34       1
    39   34   35       1
    40    2   36       1
    41    3   37       1
    42    4   38       1
    43    6   39       1
    44    7   40       1
    45    7   41       1
    46    9   42       1
    47   10   43       1
    48   10   44       1
    49   12   45       1
    50   12   46       1
    51   14   47       1
    52   16   48       1
    53   18   49       1
    54   19   50       1
    55   20   51       1
    56   23   52       1
    57   25   53       1
    58   28   54       1
    59   28   55       1
    60   28   56       1
    61   29   57       1
    62   29   58       1
    63   30   59       1
    64   31   60       1
    65   31   61       1
    66   32   62       1
    67   32   63       1
    68   33   64       1
    69   33   65       1
    70   34   66       1
    71   34   67       1
    72   35   68       1
    73   35   69       1
    74   12   70       1
@<TRIPOS>SUBSTRUCTURE
     1 SS51351     1 GROUP             4 A     SS5     0 **** SS5 A1351
