@<TRIPOS>MOLECULE
4psw_COA_1_ligand
   81    83     1     0     0
SMALL
NO_CHARGES


@<TRIPOS>ATOM
     1 N1A        -19.8620   -44.9620    -0.0370 N.ar         1 COA401   0.0000
     2 C2A        -18.8740   -44.1650    -0.5100 C.ar         1 COA401   0.0000
     3 N3A        -17.7130   -44.7260    -0.9500 N.ar         1 COA401   1.0000
     4 C4A        -17.6070   -46.0620    -1.1750 C.ar         1 COA401   0.0000
     5 C5A        -18.7230   -46.8850    -0.8380 C.ar         1 COA401   0.0000
     6 C6A        -19.8660   -46.2730    -0.2920 C.ar         1 COA401   0.0000
     7 N6A        -20.9240   -47.1100     0.2830 N.pl3        1 COA401   0.0000
     8 N7A        -18.3890   -48.1440    -1.1440 N.2          1 COA401   0.0000
     9 C8A        -17.1470   -48.1700    -1.6460 C.2          1 COA401   0.0000
    10 N9A        -16.6300   -46.9250    -1.6820 N.pl3        1 COA401   0.0000
    11 C1B        -15.2730   -46.5890    -2.1860 C.3          1 COA401   0.0000
    12 C2B        -15.1950   -45.2260    -2.7900 C.3          1 COA401   0.0000
    13 O2B        -14.4330   -45.1920    -3.9500 O.3          1 COA401   0.0000
    14 C3B        -14.5360   -44.4680    -1.7270 C.3          1 COA401   0.0000
    15 O3B        -14.0200   -43.2760    -2.1850 O.3          1 COA401   0.0000
    16 P3B        -14.8140   -41.9510    -1.8820 P.3          1 COA401   0.0000
    17 O7A        -15.5330   -41.4850    -3.1270 O.co2        1 COA401   0.0000
    18 O8A        -13.8440   -40.8780    -1.4420 O.co2        1 COA401  -1.0000
    19 O9A        -15.8230   -42.1970    -0.7730 O.co2        1 COA401  -1.0000
    20 C4B        -13.5100   -45.4610    -1.2870 C.3          1 COA401   0.0000
    21 O4B        -14.2560   -46.6550    -1.2110 O.3          1 COA401   0.0000
    22 C5B        -12.8030   -45.1180     0.0060 C.3          1 COA401   0.0000
    23 O5B        -12.4990   -43.7480     0.0790 O.3          1 COA401   0.0000
    24 P1A        -11.0090   -43.2730     0.0130 P.3          1 COA401   0.0000
    25 O1A        -11.0120   -41.8240    -0.4180 O.co2        1 COA401   0.0000
    26 O2A        -10.3120   -44.0980    -1.0550 O.co2        1 COA401  -1.0000
    27 O3A        -10.3140   -43.3890     1.4480 O.3          1 COA401   0.0000
    28 P2A         -8.8350   -43.9050     1.7630 P.3          1 COA401   0.0000
    29 O4A         -8.1890   -44.4660     0.5270 O.co2        1 COA401   0.0000
    30 O5A         -9.0730   -45.1030     2.6430 O.co2        1 COA401  -1.0000
    31 O6A         -7.8130   -42.8150     2.4730 O.3          1 COA401   0.0000
    32 CBP         -7.8730   -40.4490     3.3390 C.3          1 COA401   0.0000
    33 CCP         -7.7130   -41.4350     2.1150 C.3          1 COA401   0.0000
    34 CDP         -9.3600   -40.2660     3.6240 C.3          1 COA401   0.0000
    35 CEP         -7.3140   -41.1090     4.5660 C.3          1 COA401   0.0000
    36 CAP         -7.2400   -39.0450     3.0960 C.3          1 COA401   0.0000
    37 OAP         -8.1930   -38.3220     2.3750 O.3          1 COA401   0.0000
    38 C9P         -6.7140   -38.0280     4.1620 C.2          1 COA401   0.0000
    39 O9P         -5.9950   -38.3230     5.1110 O.2          1 COA401   0.0000
    40 N8P         -7.0750   -36.6350     3.9400 N.am         1 COA401   0.0000
    41 C7P         -6.7200   -35.4510     4.7100 C.3          1 COA401   0.0000
    42 C6P         -6.7500   -35.5780     6.2170 C.3          1 COA401   0.0000
    43 C5P         -8.1570   -35.3210     6.7830 C.2          1 COA401   0.0000
    44 O5P         -8.8920   -34.4600     6.2830 O.2          1 COA401   0.0000
    45 N4P         -8.6390   -36.1130     7.9240 N.am         1 COA401   0.0000
    46 C3P         -9.9730   -35.8850     8.4590 C.3          1 COA401   0.0000
    47 C2P         -9.9400   -34.7370     9.4510 C.3          1 COA401   0.0000
    48 S1P         -9.0930   -35.2550    10.9230 S.3          1 COA401   0.0000
    49 H2A        -18.9958   -43.1728    -0.5360 H            1 COA401   0.0000
    50 H6A1       -20.9388   -48.0930     0.1000 H            1 COA401   0.0000
    51 H6A2       -21.6307   -46.6977     0.8581 H            1 COA401   0.0000
    52 H8A        -16.6712   -48.9951    -1.9506 H            1 COA401   0.0000
    53 H1B        -15.0462   -47.2489    -2.9023 H            1 COA401   0.0000
    54 H2B        -16.1117   -44.8653    -2.9617 H            1 COA401   0.0000
    55 H7         -14.4151   -44.2592    -4.3099 H            1 COA401   0.0000
    56 H3B        -15.1816   -44.2949    -0.9832 H            1 COA401   0.0000
    57 H4B        -12.8260   -45.5564    -2.0102 H            1 COA401   0.0000
    58 H5B1       -11.9535   -45.6427     0.0609 H            1 COA401   0.0000
    59 H5B2       -13.3951   -45.3609     0.7744 H            1 COA401   0.0000
    60 HCP1        -8.4289   -41.2291     1.4479 H            1 COA401   0.0000
    61 HCP2        -6.8163   -41.2805     1.7001 H            1 COA401   0.0000
    62 HDP1        -9.4770   -39.6433     4.3977 H            1 COA401   0.0000
    63 HDP2        -9.8094   -39.8830     2.8169 H            1 COA401   0.0000
    64 HDP3        -9.7687   -41.1517     3.8443 H            1 COA401   0.0000
    65 HEP1        -7.4097   -40.4937     5.3484 H            1 COA401   0.0000
    66 HEP2        -7.8134   -41.9566     4.7454 H            1 COA401   0.0000
    67 HEP3        -6.3465   -41.3164     4.4215 H            1 COA401   0.0000
    68 HAP         -6.4788   -39.1956     2.4652 H            1 COA401   0.0000
    69 H21         -8.3835   -38.7898     1.5119 H            1 COA401   0.0000
    70 H8P         -7.6519   -36.4664     3.1408 H            1 COA401   0.0000
    71 H7P1        -7.3572   -34.7234     4.4557 H            1 COA401   0.0000
    72 H7P2        -5.7916   -35.1877     4.4478 H            1 COA401   0.0000
    73 H6P1        -6.1160   -34.9125     6.6108 H            1 COA401   0.0000
    74 H6P2        -6.4630   -36.5019     6.4699 H            1 COA401   0.0000
    75 H4P         -8.0493   -36.8094     8.3330 H            1 COA401   0.0000
    76 H3P1       -10.2917   -36.7131     8.9201 H            1 COA401   0.0000
    77 H3P2       -10.5967   -35.6592     7.7106 H            1 COA401   0.0000
    78 H2P1       -10.8752   -34.4678     9.6812 H            1 COA401   0.0000
    79 H2P2        -9.4595   -33.9593     9.0456 H            1 COA401   0.0000
    80 H1P         -9.5736   -36.0329    11.3279 H            1 COA401   0.0000
    81 H3A        -16.9190   -44.1400    -1.1114 H            1 COA401   0.0000
@<TRIPOS>BOND
     1    1    2      ar
     2    1    6      ar
     3    2    3      ar
     4    3    4      ar
     5    4    5      ar
     6    4   10       1
     7    5    6      ar
     8    5    8       1
     9    6    7       1
    10    8    9       2
    11    9   10       1
    12   10   11       1
    13   11   12       1
    14   11   21       1
    15   12   13       1
    16   12   14       1
    17   14   15       1
    18   14   20       1
    19   15   16       1
    20   16   17      ar
    21   16   18      ar
    22   16   19      ar
    23   20   21       1
    24   20   22       1
    25   22   23       1
    26   23   24       1
    27   24   25      ar
    28   24   26      ar
    29   24   27       1
    30   27   28       1
    31   28   29      ar
    32   28   30      ar
    33   28   31       1
    34   31   33       1
    35   32   33       1
    36   32   34       1
    37   32   35       1
    38   32   36       1
    39   36   37       1
    40   36   38       1
    41   38   39       2
    42   38   40      am
    43   40   41       1
    44   41   42       1
    45   42   43       1
    46   43   44       2
    47   43   45      am
    48   45   46       1
    49   46   47       1
    50   47   48       1
    51    2   49       1
    52    7   50       1
    53    7   51       1
    54    9   52       1
    55   11   53       1
    56   12   54       1
    57   13   55       1
    58   14   56       1
    59   48   80       1
    60   47   79       1
    61   20   57       1
    62   22   58       1
    63   22   59       1
    64   47   78       1
    65   46   77       1
    66   33   60       1
    67   33   61       1
    68   34   62       1
    69   34   63       1
    70   34   64       1
    71   35   65       1
    72   35   66       1
    73   35   67       1
    74   36   68       1
    75   37   69       1
    76   40   70       1
    77   41   71       1
    78   41   72       1
    79   42   73       1
    80   42   74       1
    81   45   75       1
    82   46   76       1
    83    3   81       1
@<TRIPOS>SUBSTRUCTURE
     1 COA401      1 GROUP             4 A     COA     0 **** COA A 401
