@<TRIPOS>MOLECULE
3t1t_GDP_2_ligand
   40    42     1     0     0
SMALL
NO_CHARGES


@<TRIPOS>ATOM
     1 PB           1.5810   -26.3500   -42.6520 P.3          1 GDP274   0.0000
     2 O1B          0.5010   -25.3380   -42.5890 O.co2        1 GDP274   0.0000
     3 O2B          1.0910   -27.7620   -42.6850 O.co2        1 GDP274  -1.0000
     4 O3B          2.7010   -26.2130   -41.7000 O.co2        1 GDP274  -1.0000
     5 O3A          2.1420   -26.0270   -44.2100 O.3          1 GDP274   0.0000
     6 PA           3.6420   -25.7210   -44.6050 P.3          1 GDP274   0.0000
     7 O1A          4.3250   -26.9730   -44.3840 O.co2        1 GDP274   0.0000
     8 O2A          4.1970   -24.5180   -43.9920 O.co2        1 GDP274  -1.0000
     9 O5'          3.3760   -25.4300   -46.2250 O.3          1 GDP274   0.0000
    10 C5'          2.5680   -26.3300   -46.9510 C.3          1 GDP274   0.0000
    11 C4'          3.1120   -26.2650   -48.4290 C.3          1 GDP274   0.0000
    12 O4'          2.7250   -24.9570   -48.7710 O.3          1 GDP274   0.0000
    13 C3'          4.6420   -26.3520   -48.6230 C.3          1 GDP274   0.0000
    14 O3'          4.9170   -26.9340   -49.9400 O.3          1 GDP274   0.0000
    15 C2'          5.0660   -24.9100   -48.6390 C.3          1 GDP274   0.0000
    16 O2'          6.2100   -24.6020   -49.4750 O.3          1 GDP274   0.0000
    17 C1'          3.8570   -24.2660   -49.2820 C.3          1 GDP274   0.0000
    18 N9           3.7730   -22.8410   -48.9790 N.pl3        1 GDP274   0.0000
    19 C8           3.8920   -22.2590   -47.7770 C.2          1 GDP274   0.0000
    20 N7           3.7670   -20.9420   -47.8690 N.2          1 GDP274   0.0000
    21 C5           3.5530   -20.6750   -49.1990 C.2          1 GDP274   0.0000
    22 C6           3.3050   -19.4760   -50.0190 C.2          1 GDP274   0.0000
    23 O6           3.2800   -18.3950   -49.4600 O.2          1 GDP274   0.0000
    24 N1           3.1690   -19.5570   -51.3720 N.pl3        1 GDP274   0.0000
    25 C2           3.1500   -20.7830   -51.9480 C.2          1 GDP274   0.0000
    26 N2           3.0030   -20.8470   -53.3210 N.pl3        1 GDP274   0.0000
    27 N3           3.3880   -21.9540   -51.2730 N.2          1 GDP274   0.0000
    28 C4           3.5590   -21.9320   -49.9140 C.2          1 GDP274   0.0000
    29 H5'1         1.6092   -26.0480   -46.9166 H            1 GDP274   0.0000
    30 H5'2         2.6564   -27.2561   -46.5843 H            1 GDP274   0.0000
    31 H4'          2.6444   -26.9339   -49.0069 H            1 GDP274   0.0000
    32 H3'          5.0845   -26.8645   -47.8871 H            1 GDP274   0.0000
    33 H5           5.4432   -26.2841   -50.4884 H            1 GDP274   0.0000
    34 H2'          5.2008   -24.5673   -47.7093 H            1 GDP274   0.0000
    35 H7           6.1315   -23.6650   -49.8154 H            1 GDP274   0.0000
    36 H1'          3.9024   -24.3918   -50.2730 H            1 GDP274   0.0000
    37 H9           4.0538   -22.7533   -46.9229 H            1 GDP274   0.0000
    38 H10          3.0851   -18.7299   -51.9277 H            1 GDP274   0.0000
    39 H11          2.9846   -21.7347   -53.7810 H            1 GDP274   0.0000
    40 H12          2.9151   -20.0056   -53.8542 H            1 GDP274   0.0000
@<TRIPOS>BOND
     1    1    2      ar
     2    1    3      ar
     3    1    4      ar
     4    1    5       1
     5    5    6       1
     6    6    7      ar
     7    6    8      ar
     8    6    9       1
     9    9   10       1
    10   10   11       1
    11   11   12       1
    12   11   13       1
    13   12   17       1
    14   13   14       1
    15   13   15       1
    16   15   16       1
    17   15   17       1
    18   17   18       1
    19   18   19       1
    20   18   28       1
    21   19   20       2
    22   20   21       1
    23   21   22       1
    24   21   28       2
    25   22   23       2
    26   22   24       1
    27   24   25       1
    28   25   26       1
    29   25   27       2
    30   27   28       1
    31   26   40       1
    32   26   39       1
    33   24   38       1
    34   10   29       1
    35   10   30       1
    36   11   31       1
    37   13   32       1
    38   14   33       1
    39   15   34       1
    40   16   35       1
    41   17   36       1
    42   19   37       1
@<TRIPOS>SUBSTRUCTURE
     1 GDP274      1 GROUP             4 B     GDP     0 **** GDP B 274
