@<TRIPOS>MOLECULE
3aeo_3LM_3_ligand
   40    40     1     0     0
SMALL
NO_CHARGES


@<TRIPOS>ATOM
     1 C           28.2040   -15.0880    46.1060 C.2          1 3LM2003   0.0000
     2 N           29.2690   -13.1010    45.4660 N.pl3        1 3LM2003   0.0000
     3 O1          27.1010   -15.6360    46.2010 O.co2        1 3LM2003   0.0000
     4 P           29.5590    -9.3960    41.2560 P.3          1 3LM2003   0.0000
     5 N1          33.1140    -9.5420    46.2530 N.ar         1 3LM2003   1.0000
     6 C2          32.4750   -10.3290    47.1280 C.ar         1 3LM2003   0.0000
     7 C3          31.3520   -11.1680    46.6430 C.ar         1 3LM2003   0.0000
     8 O3          30.7440   -11.9350    47.5400 O.3          1 3LM2003  -1.0000
     9 C4          30.9630   -11.1580    45.2270 C.ar         1 3LM2003   0.0000
    10 C5          31.7630   -10.2490    44.3710 C.ar         1 3LM2003   0.0000
    11 C6          32.7940    -9.4970    44.9480 C.ar         1 3LM2003   0.0000
    12 CA          28.5300   -14.1660    45.0280 C.2          1 3LM2003   0.0000
    13 CB          28.1860   -14.3580    43.7160 C.2          1 3LM2003   0.0000
    14 SD          28.4060   -16.8970    42.4580 S.3          1 3LM2003   0.0000
    15 CE          28.4320   -16.8820    40.6970 C.3          1 3LM2003   0.0000
    16 CG          27.4080   -15.5470    43.1310 C.3          1 3LM2003   0.0000
    17 C2A         32.8140   -10.3890    48.5990 C.3          1 3LM2003   0.0000
    18 C4A         29.8500   -12.0170    44.6320 C.3          1 3LM2003   0.0000
    19 C5A         31.5010   -10.1470    42.8890 C.3          1 3LM2003   0.0000
    20 OP1         30.5160    -9.3720    40.0970 O.co2        1 3LM2003   0.0000
    21 OP2         28.8920   -10.7270    41.4950 O.co2        1 3LM2003  -1.0000
    22 OP3         28.6160    -8.2270    41.3710 O.co2        1 3LM2003  -1.0000
    23 OP4         30.4120    -9.2810    42.5970 O.3          1 3LM2003   0.0000
    24 O2          29.0710   -15.2600    46.9870 O.co2        1 3LM2003  -1.0000
    25 H1          29.4356   -13.0464    46.4505 H            1 3LM2003   0.0000
    26 H2          33.3233    -8.8909    44.3543 H            1 3LM2003   0.0000
    27 HB          28.4714   -13.6494    43.0707 H            1 3LM2003   0.0000
    28 HE1         28.9922   -17.6411    40.3654 H            1 3LM2003   0.0000
    29 HE2         27.4995   -16.9790    40.3490 H            1 3LM2003   0.0000
    30 HE3         28.8190   -16.0174    40.3767 H            1 3LM2003   0.0000
    31 HG1         26.8274   -15.1997    42.3946 H            1 3LM2003   0.0000
    32 HG2         26.8343   -15.9242    43.8580 H            1 3LM2003   0.0000
    33 H2A1        32.2088   -11.0422    49.0542 H            1 3LM2003   0.0000
    34 H2A2        33.7639   -10.6810    48.7105 H            1 3LM2003   0.0000
    35 H2A3        32.6937    -9.4835    49.0060 H            1 3LM2003   0.0000
    36 H4A1        29.1018   -11.4013    44.3849 H            1 3LM2003   0.0000
    37 H4A2        30.2166   -12.4445    43.8056 H            1 3LM2003   0.0000
    38 H5A1        31.2920   -11.0586    42.5350 H            1 3LM2003   0.0000
    39 H5A2        32.3222    -9.7952    42.4398 H            1 3LM2003   0.0000
    40 H16         33.8599    -8.9640    46.5839 H            1 3LM2003   0.0000
@<TRIPOS>BOND
     1    1    3      ar
     2    1   12       1
     3    1   24      ar
     4    2   12       1
     5    2   18       1
     6    4   20      ar
     7    4   21      ar
     8    4   22      ar
     9    4   23       1
    10    5    6      ar
    11    5   11      ar
    12    6    7      ar
    13    6   17       1
    14    7    8       1
    15    7    9      ar
    16    9   10      ar
    17    9   18       1
    18   10   11      ar
    19   10   19       1
    20   12   13       2
    21   13   16       1
    22   14   15       1
    23   14   16       1
    24   19   23       1
    25    2   25       1
    26   19   39       1
    27    5   40       1
    28   11   26       1
    29   13   27       1
    30   15   28       1
    31   15   29       1
    32   15   30       1
    33   16   31       1
    34   16   32       1
    35   17   33       1
    36   17   34       1
    37   17   35       1
    38   18   36       1
    39   18   37       1
    40   19   38       1
@<TRIPOS>SUBSTRUCTURE
     1 3LM2003     1 GROUP             4 C     3LM     0 **** 3LM C2003
