@<TRIPOS>MOLECULE
4ivg_ANP_1_ligand
   44    46     1     0     0
SMALL
NO_CHARGES


@<TRIPOS>ATOM
     1 PG         -11.6220     0.4090   -30.4300 P.3          1 ANP801   0.0000
     2 O1G        -10.2760     0.9690   -30.0900 O.co2        1 ANP801   0.0000
     3 O2G        -12.5660     1.5300   -30.9970 O.co2        1 ANP801  -1.0000
     4 O3G        -11.4820    -0.7560   -31.4880 O.co2        1 ANP801  -1.0000
     5 PB         -13.1920     0.6000   -28.0120 P.3          1 ANP801   0.0000
     6 O1B        -13.6740    -0.3380   -26.9360 O.co2        1 ANP801   0.0000
     7 O2B        -14.4730     1.2080   -28.6850 O.co2        1 ANP801  -1.0000
     8 N3B        -12.3200    -0.3800   -29.0780 N.3          1 ANP801   0.0000
     9 PA         -12.3200     3.2100   -27.3090 P.3          1 ANP801   0.0000
    10 O1A        -12.8450     3.6870   -28.6210 O.co2        1 ANP801   0.0000
    11 O2A        -10.9710     3.7420   -26.8040 O.co2        1 ANP801  -1.0000
    12 O3A        -12.1560     1.5920   -27.3880 O.3          1 ANP801   0.0000
    13 O5'        -13.4310     3.3160   -26.1720 O.3          1 ANP801   0.0000
    14 C5'        -13.1230     2.7860   -24.8630 C.3          1 ANP801   0.0000
    15 C4'        -14.4160     2.4900   -24.1460 C.3          1 ANP801   0.0000
    16 O4'        -14.9990     3.7190   -23.6480 O.3          1 ANP801   0.0000
    17 C3'        -15.5250     1.8430   -24.9630 C.3          1 ANP801   0.0000
    18 O3'        -15.3600     0.4240   -25.0230 O.3          1 ANP801   0.0000
    19 C2'        -16.7590     2.1960   -24.1380 C.3          1 ANP801   0.0000
    20 O2'        -16.8850     1.3010   -23.0340 O.3          1 ANP801   0.0000
    21 C1'        -16.4150     3.6090   -23.6580 C.3          1 ANP801   0.0000
    22 N9         -16.9420     4.6520   -24.5040 N.pl3        1 ANP801   0.0000
    23 C8         -16.2530     5.4280   -25.4240 C.2          1 ANP801   0.0000
    24 N7         -16.9840     6.2990   -26.0540 N.2          1 ANP801   0.0000
    25 C5         -18.2730     6.1010   -25.5420 C.ar         1 ANP801   0.0000
    26 C6         -19.4990     6.7160   -25.7960 C.ar         1 ANP801   0.0000
    27 N6         -19.6750     7.6940   -26.6950 N.pl3        1 ANP801   0.0000
    28 N1         -20.5760     6.2830   -25.1060 N.ar         1 ANP801   0.0000
    29 C2         -20.4110     5.3000   -24.2100 C.ar         1 ANP801   0.0000
    30 N3         -19.2970     4.6540   -23.8660 N.ar         1 ANP801   0.0000
    31 C4         -18.2390     5.1050   -24.5890 C.ar         1 ANP801   0.0000
    32 H3B        -12.9407    -1.0843   -29.4224 H            1 ANP801   0.0000
    33 H5'1       -12.5960     3.4582   -24.3431 H            1 ANP801   0.0000
    34 H5'2       -12.5901     1.9451   -24.9571 H            1 ANP801   0.0000
    35 H4'        -14.2145     1.8985   -23.3653 H            1 ANP801   0.0000
    36 H3'        -15.5773     2.2398   -25.8794 H            1 ANP801   0.0000
    37 H6         -14.8011     0.1867   -25.8175 H            1 ANP801   0.0000
    38 H2'        -17.5849     2.1953   -24.7018 H            1 ANP801   0.0000
    39 H8         -16.0729     1.3699   -22.4546 H            1 ANP801   0.0000
    40 H1'        -16.7610     3.7337   -22.7281 H            1 ANP801   0.0000
    41 H10        -15.2721     5.3257   -25.5895 H            1 ANP801   0.0000
    42 H11        -20.5822     8.0930   -26.8286 H            1 ANP801   0.0000
    43 H12        -18.8992     8.0248   -27.2323 H            1 ANP801   0.0000
    44 H13        -21.2404     5.0105   -23.7323 H            1 ANP801   0.0000
@<TRIPOS>BOND
     1    1    2      ar
     2    1    3      ar
     3    1    4      ar
     4    1    8       1
     5    5    6      ar
     6    5    7      ar
     7    5    8       1
     8    5   12       1
     9    9   10      ar
    10    9   11      ar
    11    9   12       1
    12    9   13       1
    13   13   14       1
    14   14   15       1
    15   15   16       1
    16   15   17       1
    17   16   21       1
    18   17   18       1
    19   17   19       1
    20   19   20       1
    21   19   21       1
    22   21   22       1
    23   22   23       1
    24   22   31       1
    25   23   24       2
    26   24   25       1
    27   25   26      ar
    28   25   31      ar
    29   26   27       1
    30   26   28      ar
    31   28   29      ar
    32   29   30      ar
    33   30   31      ar
    34   29   44       1
    35   27   43       1
    36   27   42       1
    37    8   32       1
    38   23   41       1
    39   14   33       1
    40   14   34       1
    41   15   35       1
    42   17   36       1
    43   18   37       1
    44   19   38       1
    45   20   39       1
    46   21   40       1
@<TRIPOS>SUBSTRUCTURE
     1 ANP801      1 GROUP             4 A     ANP     0 **** ANP A 801
