@<TRIPOS>MOLECULE
2bd0_BIO_1_ligand
   28    29     1     0     0
SMALL
NO_CHARGES


@<TRIPOS>ATOM
     1 N1          37.4530    36.2700    13.4190 N.2          1 BIO900   0.0000
     2 N2          38.4680    38.0300    12.2830 N.pl3        1 BIO900   0.0000
     3 C2          37.6910    37.5770    13.3190 C.2          1 BIO900   0.0000
     4 N3          37.1810    38.4930    14.2190 N.pl3        1 BIO900   0.0000
     5 C4          36.3950    38.0890    15.2750 C.2          1 BIO900   0.0000
     6 O4          35.9450    38.8970    16.0710 O.2          1 BIO900   0.0000
     7 C4A         36.1150    36.6320    15.4130 C.ar         1 BIO900   0.0000
     8 C8A         36.6880    35.7480    14.4250 C.ar         1 BIO900   0.0000
     9 N8          36.4460    34.4150    14.5300 N.ar         1 BIO900   0.0000
    10 C7          35.6900    33.9220    15.5340 C.ar         1 BIO900   0.0000
    11 C6          35.1320    34.7910    16.5040 C.ar         1 BIO900   0.0000
    12 N5          35.3620    36.1210    16.4110 N.ar         1 BIO900   0.0000
    13 C9          34.2860    34.2210    17.6440 C.3          1 BIO900   0.0000
    14 O9          33.2540    33.3780    17.1110 O.3          1 BIO900   0.0000
    15 C10         33.6510    35.3550    18.4810 C.3          1 BIO900   0.0000
    16 O10         34.6660    36.2070    19.0330 O.3          1 BIO900   0.0000
    17 C11         32.8120    34.7730    19.6160 C.3          1 BIO900   0.0000
    18 H1          38.6581    39.0074    12.1908 H            1 BIO900   0.0000
    19 H2          38.8443    37.3828    11.6201 H            1 BIO900   0.0000
    20 H3          35.5229    32.9379    15.5934 H            1 BIO900   0.0000
    21 H4          34.8743    33.6729    18.2385 H            1 BIO900   0.0000
    22 H5          33.5711    32.9609    16.2592 H            1 BIO900   0.0000
    23 H6          33.0585    35.9007    17.8885 H            1 BIO900   0.0000
    24 H7          35.2002    36.6128    18.2914 H            1 BIO900   0.0000
    25 H8          32.4083    35.5175    20.1477 H            1 BIO900   0.0000
    26 H9          32.0842    34.2033    19.2342 H            1 BIO900   0.0000
    27 H10         33.3939    34.2170    20.2094 H            1 BIO900   0.0000
    28 H11         37.3859    39.4647    14.1016 H            1 BIO900   0.0000
@<TRIPOS>BOND
     1    1    3       2
     2    1    8       1
     3    2    3       1
     4    3    4       1
     5    4    5       1
     6    5    6       2
     7    5    7       1
     8    7    8      ar
     9    7   12      ar
    10    8    9      ar
    11    9   10      ar
    12   10   11      ar
    13   11   12      ar
    14   11   13       1
    15   13   14       1
    16   13   15       1
    17   15   16       1
    18   15   17       1
    19   17   27       1
    20    2   18       1
    21    2   19       1
    22   10   20       1
    23   13   21       1
    24   14   22       1
    25   15   23       1
    26   16   24       1
    27   17   25       1
    28   17   26       1
    29    4   28       1
@<TRIPOS>SUBSTRUCTURE
     1 BIO900      1 GROUP             4 D     BIO     0 **** BIO D 900
