@<TRIPOS>MOLECULE
4hr2_ADP_2_ligand
   39    41     1     0     0
SMALL
NO_CHARGES


@<TRIPOS>ATOM
     1 PB          18.4970    46.9080    -8.3790 P.3          1 ADP601   0.0000
     2 O1B         19.5080    45.7860    -8.5070 O.co2        1 ADP601   0.0000
     3 O2B         17.0470    46.4390    -8.1900 O.co2        1 ADP601  -1.0000
     4 O3B         18.9600    48.0040    -7.4380 O.co2        1 ADP601  -1.0000
     5 PA          19.3300    48.7300   -10.5900 P.3          1 ADP601   0.0000
     6 O1A         19.9800    48.0300   -11.7510 O.co2        1 ADP601   0.0000
     7 O2A         18.5540    50.0110   -10.7930 O.co2        1 ADP601  -1.0000
     8 O3A         18.3980    47.6190    -9.8480 O.3          1 ADP601   0.0000
     9 O5'         20.5160    49.0650    -9.6090 O.3          1 ADP601   0.0000
    10 C5'         21.5720    48.1520    -9.4250 C.3          1 ADP601   0.0000
    11 C4'         22.3930    48.7700    -8.3310 C.3          1 ADP601   0.0000
    12 O4'         23.2600    49.7330    -8.9260 O.3          1 ADP601   0.0000
    13 C3'         21.5810    49.5350    -7.2920 C.3          1 ADP601   0.0000
    14 O3'         21.0070    48.7050    -6.2660 O.3          1 ADP601   0.0000
    15 C2'         22.6530    50.4520    -6.7750 C.3          1 ADP601   0.0000
    16 O2'         23.5250    49.7280    -5.9100 O.3          1 ADP601   0.0000
    17 C1'         23.3890    50.8520    -8.0400 C.3          1 ADP601   0.0000
    18 N9          22.7720    52.0780    -8.6170 N.pl3        1 ADP601   0.0000
    19 C8          21.6960    52.1770    -9.4170 C.2          1 ADP601   0.0000
    20 N7          21.4300    53.4730    -9.7290 N.2          1 ADP601   0.0000
    21 C5          22.3630    54.2100    -9.1140 C.ar         1 ADP601   0.0000
    22 C6          22.6920    55.6310    -9.0170 C.ar         1 ADP601   0.0000
    23 N6          21.9250    56.5310    -9.6670 N.pl3        1 ADP601   0.0000
    24 N1          23.7610    55.9770    -8.2680 N.ar         1 ADP601   0.0000
    25 C2          24.5320    55.0770    -7.6320 C.ar         1 ADP601   0.0000
    26 N3          24.2760    53.7620    -7.6710 N.ar         1 ADP601   0.0000
    27 C4          23.2380    53.2910    -8.3810 C.ar         1 ADP601   0.0000
    28 H5'1        22.1096    48.0555   -10.2627 H            1 ADP601   0.0000
    29 H5'2        21.2244    47.2565    -9.1470 H            1 ADP601   0.0000
    30 H4'         22.9364    48.0629    -7.8785 H            1 ADP601   0.0000
    31 H3'         20.8640    50.0670    -7.7424 H            1 ADP601   0.0000
    32 H5          20.0983    48.4013    -6.5525 H            1 ADP601   0.0000
    33 H2'         22.2608    51.2481    -6.3142 H            1 ADP601   0.0000
    34 H7          23.5109    50.1420    -4.9999 H            1 ADP601   0.0000
    35 H1'         24.3539    51.0179    -7.8365 H            1 ADP601   0.0000
    36 H9          21.1602    51.3973    -9.7409 H            1 ADP601   0.0000
    37 H10         22.1397    57.5059    -9.6085 H            1 ADP601   0.0000
    38 H11         21.1419    56.2231   -10.2072 H            1 ADP601   0.0000
    39 H12         25.3230    55.3999    -7.1124 H            1 ADP601   0.0000
@<TRIPOS>BOND
     1    1    2      ar
     2    1    3      ar
     3    1    4      ar
     4    1    8       1
     5    5    6      ar
     6    5    7      ar
     7    5    8       1
     8    5    9       1
     9    9   10       1
    10   10   11       1
    11   11   12       1
    12   11   13       1
    13   12   17       1
    14   13   14       1
    15   13   15       1
    16   15   16       1
    17   15   17       1
    18   17   18       1
    19   18   19       1
    20   18   27       1
    21   19   20       2
    22   20   21       1
    23   21   22      ar
    24   21   27      ar
    25   22   23       1
    26   22   24      ar
    27   24   25      ar
    28   25   26      ar
    29   26   27      ar
    30   25   39       1
    31   23   38       1
    32   23   37       1
    33   10   28       1
    34   10   29       1
    35   11   30       1
    36   13   31       1
    37   14   32       1
    38   15   33       1
    39   16   34       1
    40   17   35       1
    41   19   36       1
@<TRIPOS>SUBSTRUCTURE
     1 ADP601      1 GROUP             4 B     ADP     0 **** ADP B 601
