@<TRIPOS>MOLECULE
3nwz_COA_1_ligand
   80    82     1     0     0
SMALL
NO_CHARGES


@<TRIPOS>ATOM
     1 N1A         28.5990    10.5410    29.7950 N.ar         1 COA270   0.0000
     2 C2A         28.4750    10.9400    31.0490 C.ar         1 COA270   0.0000
     3 N3A         27.3180    10.8880    31.6860 N.ar         1 COA270   0.0000
     4 C4A         26.2240    10.4220    31.0690 C.ar         1 COA270   0.0000
     5 C5A         26.3130     9.9940    29.7520 C.ar         1 COA270   0.0000
     6 C6A         27.5470    10.0630    29.1150 C.ar         1 COA270   0.0000
     7 N6A         27.6840     9.6530    27.8580 N.pl3        1 COA270   0.0000
     8 N7A         25.1050     9.5840    29.3820 N.2          1 COA270   0.0000
     9 C8A         24.2860     9.7420    30.4200 C.2          1 COA270   0.0000
    10 N9A         24.9620    10.2480    31.4490 N.pl3        1 COA270   0.0000
    11 C1B         24.4070    10.5310    32.7920 C.3          1 COA270   0.0000
    12 C2B         25.2190     9.9040    33.9230 C.3          1 COA270   0.0000
    13 O2B         25.0020     8.4900    33.9450 O.3          1 COA270   0.0000
    14 C3B         24.5190    10.6020    35.0850 C.3          1 COA270   0.0000
    15 O3B         23.2170    10.0410    35.2800 O.3          1 COA270   0.0000
    16 P3B         22.5100    10.1540    36.7220 P.3          1 COA270   0.0000
    17 O7A         21.8020    11.4410    36.9030 O.co2        1 COA270   0.0000
    18 O8A         21.5240     8.8880    36.8520 O.co2        1 COA270  -1.0000
    19 O9A         23.6910     9.9440    37.7960 O.co2        1 COA270  -1.0000
    20 C4B         24.4330    12.0360    34.5580 C.3          1 COA270   0.0000
    21 O4B         24.3980    11.9310    33.1210 O.3          1 COA270   0.0000
    22 C5B         25.7110    12.7980    34.9200 C.3          1 COA270   0.0000
    23 O5B         25.7920    13.0150    36.3310 O.3          1 COA270   0.0000
    24 P1A         27.0760    13.7520    36.9660 P.3          1 COA270   0.0000
    25 O1A         28.2990    13.0350    36.5400 O.co2        1 COA270   0.0000
    26 O2A         26.8200    13.9060    38.4160 O.co2        1 COA270  -1.0000
    27 O3A         27.0350    15.1980    36.2590 O.3          1 COA270   0.0000
    28 P2A         27.7430    16.4670    36.9510 P.3          1 COA270   0.0000
    29 O4A         26.8120    17.6110    36.8300 O.co2        1 COA270   0.0000
    30 O5A         28.2080    16.0820    38.3030 O.co2        1 COA270  -1.0000
    31 O6A         29.0250    16.7250    36.0090 O.3          1 COA270   0.0000
    32 CBP         28.5800    17.4950    33.7180 C.3          1 COA270   0.0000
    33 CCP         29.0890    17.8430    35.1190 C.3          1 COA270   0.0000
    34 CDP         29.2950    16.2370    33.2210 C.3          1 COA270   0.0000
    35 CEP         28.8780    18.6590    32.7700 C.3          1 COA270   0.0000
    36 CAP         27.0730    17.2290    33.7420 C.3          1 COA270   0.0000
    37 OAP         26.3900    18.3830    34.2400 O.3          1 COA270   0.0000
    38 C9P         26.5880    16.9220    32.3230 C.2          1 COA270   0.0000
    39 O9P         26.5490    15.7660    31.9040 O.2          1 COA270   0.0000
    40 N8P         26.2420    17.9810    31.5960 N.am         1 COA270   0.0000
    41 C7P         25.7510    17.8510    30.2170 C.3          1 COA270   0.0000
    42 C6P         26.7160    18.5310    29.2420 C.3          1 COA270   0.0000
    43 C5P         26.1900    18.4270    27.8080 C.2          1 COA270   0.0000
    44 O5P         25.1180    17.8710    27.5740 O.2          1 COA270   0.0000
    45 N4P         26.9600    18.9690    26.8670 N.am         1 COA270   0.0000
    46 C3P         26.5590    18.9310    25.4530 C.3          1 COA270   0.0000
    47 C2P         27.5920    19.6430    24.5780 C.3          1 COA270   0.0000
    48 S1P         29.2310    18.8300    24.5960 S.3          1 COA270   0.0000
    49 H2A         29.2789    11.2910    31.5292 H            1 COA270   0.0000
    50 H6A1        26.8935     9.2980    27.3589 H            1 COA270   0.0000
    51 H6A2        28.5775     9.6996    27.4115 H            1 COA270   0.0000
    52 H8A         23.3121     9.5152    30.4256 H            1 COA270   0.0000
    53 H1B         23.4706    10.1828    32.8348 H            1 COA270   0.0000
    54 H2B         26.1896    10.1383    33.8686 H            1 COA270   0.0000
    55 H7          25.5350     8.0825    34.6865 H            1 COA270   0.0000
    56 H3B         25.0653    10.5536    35.9212 H            1 COA270   0.0000
    57 H4B         23.6208    12.5030    34.9076 H            1 COA270   0.0000
    58 H5B1        25.7091    13.6818    34.4522 H            1 COA270   0.0000
    59 H5B2        26.5045    12.2661    34.6243 H            1 COA270   0.0000
    60 HCP1        30.0394    18.1463    35.0504 H            1 COA270   0.0000
    61 HCP2        28.5288    18.5833    35.4907 H            1 COA270   0.0000
    62 HDP1        28.9654    16.0059    32.3056 H            1 COA270   0.0000
    63 HDP2        30.2803    16.4046    33.1880 H            1 COA270   0.0000
    64 HDP3        29.1067    15.4782    33.8445 H            1 COA270   0.0000
    65 HEP1        28.5469    18.4355    31.8533 H            1 COA270   0.0000
    66 HEP2        28.4172    19.4833    33.0991 H            1 COA270   0.0000
    67 HEP3        29.8646    18.8188    32.7382 H            1 COA270   0.0000
    68 HAP         26.8823    16.4472    34.3356 H            1 COA270   0.0000
    69 H21         26.3041    18.3163    35.2341 H            1 COA270   0.0000
    70 H8P         26.3183    18.8926    31.9999 H            1 COA270   0.0000
    71 H7P1        24.8516    18.2821    30.1452 H            1 COA270   0.0000
    72 H7P2        25.6755    16.8815    29.9839 H            1 COA270   0.0000
    73 H6P1        27.6093    18.0850    29.2981 H            1 COA270   0.0000
    74 H6P2        26.8088    19.4954    29.4895 H            1 COA270   0.0000
    75 H4P         27.8212    19.4071    27.1249 H            1 COA270   0.0000
    76 H3P1        25.6737    19.3847    25.3507 H            1 COA270   0.0000
    77 H3P2        26.4812    17.9782    25.1595 H            1 COA270   0.0000
    78 H2P1        27.6981    20.5804    24.9098 H            1 COA270   0.0000
    79 H2P2        27.2549    19.6587    23.6366 H            1 COA270   0.0000
    80 H1P         29.6891    18.9839    23.7205 H            1 COA270   0.0000
@<TRIPOS>BOND
     1    1    2      ar
     2    1    6      ar
     3    2    3      ar
     4    3    4      ar
     5    4    5      ar
     6    4   10       1
     7    5    6      ar
     8    5    8       1
     9    6    7       1
    10    8    9       2
    11    9   10       1
    12   10   11       1
    13   11   12       1
    14   11   21       1
    15   12   13       1
    16   12   14       1
    17   14   15       1
    18   14   20       1
    19   15   16       1
    20   16   17      ar
    21   16   18      ar
    22   16   19      ar
    23   20   21       1
    24   20   22       1
    25   22   23       1
    26   23   24       1
    27   24   25      ar
    28   24   26      ar
    29   24   27       1
    30   27   28       1
    31   28   29      ar
    32   28   30      ar
    33   28   31       1
    34   31   33       1
    35   32   33       1
    36   32   34       1
    37   32   35       1
    38   32   36       1
    39   36   37       1
    40   36   38       1
    41   38   39       2
    42   38   40      am
    43   40   41       1
    44   41   42       1
    45   42   43       1
    46   43   44       2
    47   43   45      am
    48   45   46       1
    49   46   47       1
    50   47   48       1
    51    2   49       1
    52    7   50       1
    53    7   51       1
    54    9   52       1
    55   11   53       1
    56   12   54       1
    57   13   55       1
    58   14   56       1
    59   48   80       1
    60   47   79       1
    61   20   57       1
    62   22   58       1
    63   22   59       1
    64   47   78       1
    65   46   77       1
    66   33   60       1
    67   33   61       1
    68   34   62       1
    69   34   63       1
    70   34   64       1
    71   35   65       1
    72   35   66       1
    73   35   67       1
    74   36   68       1
    75   37   69       1
    76   40   70       1
    77   41   71       1
    78   41   72       1
    79   42   73       1
    80   42   74       1
    81   45   75       1
    82   46   76       1
@<TRIPOS>SUBSTRUCTURE
     1 COA270      1 GROUP             4 C     COA     0 **** COA C 270
