@<TRIPOS>MOLECULE
4rf2_NAP_2_ligand
   73    77     1     0     0
SMALL
NO_CHARGES


@<TRIPOS>ATOM
     1 PA          35.0380   -59.6300    52.7550 P.3          1 NAP301   0.0000
     2 O1A         33.8560   -59.6940    53.6440 O.co2        1 NAP301   0.0000
     3 O2A         36.1360   -59.8730    53.7020 O.co2        1 NAP301  -1.0000
     4 O5B         35.0030   -60.7450    51.6430 O.3          1 NAP301   0.0000
     5 C5B         35.9980   -60.6770    50.6400 C.3          1 NAP301   0.0000
     6 C4B         35.8400   -61.8150    49.7120 C.3          1 NAP301   0.0000
     7 O4B         36.9380   -61.8070    48.7280 O.3          1 NAP301   0.0000
     8 C3B         35.9500   -63.0730    50.4450 C.3          1 NAP301   0.0000
     9 O3B         35.0250   -64.0060    49.8990 O.3          1 NAP301   0.0000
    10 C2B         37.3600   -63.5420    50.2230 C.3          1 NAP301   0.0000
    11 O2B         37.4140   -64.9550    50.2420 O.3          1 NAP301   0.0000
    12 C1B         37.7010   -63.0230    48.8860 C.3          1 NAP301   0.0000
    13 N9A         39.0900   -62.7150    48.7250 N.pl3        1 NAP301   0.0000
    14 C8A         39.8000   -62.1220    49.6420 C.2          1 NAP301   0.0000
    15 N7A         41.0600   -61.9670    49.1690 N.2          1 NAP301   0.0000
    16 C5A         41.0760   -62.5260    47.8300 C.ar         1 NAP301   0.0000
    17 C6A         41.9870   -62.7070    46.7930 C.ar         1 NAP301   0.0000
    18 N6A         43.3130   -62.2790    46.9250 N.pl3        1 NAP301   0.0000
    19 N1A         41.5740   -63.2970    45.6690 N.ar         1 NAP301   0.0000
    20 C2A         40.3310   -63.7160    45.4990 C.ar         1 NAP301   0.0000
    21 N3A         39.4250   -63.5850    46.4150 N.ar         1 NAP301   0.0000
    22 C4A         39.7210   -63.0030    47.6020 C.ar         1 NAP301   0.0000
    23 O3          35.1860   -58.1820    52.0520 O.3          1 NAP301   0.0000
    24 PN          33.9500   -57.2100    51.7120 P.3          1 NAP301   0.0000
    25 O1N         32.7150   -57.9660    51.4000 O.co2        1 NAP301   0.0000
    26 O2N         33.5510   -56.4160    52.9000 O.co2        1 NAP301  -1.0000
    27 O5D         34.3440   -56.2200    50.5260 O.3          1 NAP301   0.0000
    28 C5D         34.4170   -56.6840    49.1640 C.3          1 NAP301   0.0000
    29 C4D         34.8610   -55.5170    48.3360 C.3          1 NAP301   0.0000
    30 O4D         34.0030   -54.3240    48.6270 O.3          1 NAP301   0.0000
    31 C3D         36.2360   -55.1660    48.6790 C.3          1 NAP301   0.0000
    32 O3D         36.9650   -54.8460    47.4690 O.3          1 NAP301   0.0000
    33 C2D         36.1560   -53.9700    49.5310 C.3          1 NAP301   0.0000
    34 O2D         37.3630   -53.1740    49.3880 O.3          1 NAP301   0.0000
    35 C1D         34.9840   -53.2600    49.0360 C.3          1 NAP301   0.0000
    36 N1N         34.4190   -52.4380    49.9990 N.ar         1 NAP301   1.0000
    37 C2N         33.9260   -52.9760    51.2280 C.ar         1 NAP301   0.0000
    38 C3N         33.3510   -52.1130    52.1850 C.ar         1 NAP301   0.0000
    39 C7N         32.8240   -52.6550    53.5010 C.2          1 NAP301   0.0000
    40 O7N         32.5310   -51.8890    54.3820 O.2          1 NAP301   0.0000
    41 N7N         32.6680   -54.0650    53.6980 N.am         1 NAP301   0.0000
    42 C4N         33.2640   -50.7360    51.9270 C.ar         1 NAP301   0.0000
    43 C5N         33.7500   -50.2030    50.6990 C.ar         1 NAP301   0.0000
    44 C6N         34.3230   -51.0610    49.7440 C.ar         1 NAP301   0.0000
    45 P2B         38.7490   -65.6470    50.7030 P.3          1 NAP301   0.0000
    46 O1X         39.8310   -65.5940    49.6910 O.co2        1 NAP301   0.0000
    47 O2X         39.3480   -65.0490    51.9210 O.co2        1 NAP301  -1.0000
    48 O3X         38.6080   -67.0800    51.0300 O.co2        1 NAP301  -1.0000
    49 H5B1        36.9025   -60.7162    51.0646 H            1 NAP301   0.0000
    50 H5B2        35.9039   -59.8192    50.1347 H            1 NAP301   0.0000
    51 H4B         34.9569   -61.7618    49.2459 H            1 NAP301   0.0000
    52 H3B         35.7745   -62.9306    51.4191 H            1 NAP301   0.0000
    53 H5          35.3834   -64.9332    50.0077 H            1 NAP301   0.0000
    54 H2B         37.9710   -63.1579    50.9152 H            1 NAP301   0.0000
    55 H1B         37.4227   -63.6848    48.1898 H            1 NAP301   0.0000
    56 H8A         39.4715   -61.8312    50.5406 H            1 NAP301   0.0000
    57 H6A1        43.9591   -62.4140    46.1738 H            1 NAP301   0.0000
    58 H6A2        43.6143   -61.8382    47.7705 H            1 NAP301   0.0000
    59 H2A         40.0821   -64.1491    44.6327 H            1 NAP301   0.0000
    60 H5D1        33.5190   -57.0013    48.8592 H            1 NAP301   0.0000
    61 H5D2        35.0775   -57.4311    49.0892 H            1 NAP301   0.0000
    62 H4D         34.8022   -55.7483    47.3649 H            1 NAP301   0.0000
    63 H3D         36.6791   -55.9172    49.1682 H            1 NAP301   0.0000
    64 H16         36.5882   -55.3692    46.7046 H            1 NAP301   0.0000
    65 H2D         36.0247   -54.2328    50.4869 H            1 NAP301   0.0000
    66 H18         37.2990   -52.3638    49.9707 H            1 NAP301   0.0000
    67 H1D         35.2369   -52.7140    48.2373 H            1 NAP301   0.0000
    68 H2N         33.9882   -53.9576    51.4085 H            1 NAP301   0.0000
    69 H7N1        32.3200   -54.4127    54.5686 H            1 NAP301   0.0000
    70 H7N2        32.9071   -54.7018    52.9649 H            1 NAP301   0.0000
    71 H4N         32.8589   -50.1265    52.6085 H            1 NAP301   0.0000
    72 H5N         33.6839   -49.2220    50.5167 H            1 NAP301   0.0000
    73 H6N         34.6633   -50.6891    48.8803 H            1 NAP301   0.0000
@<TRIPOS>BOND
     1    1    2      ar
     2    1    3      ar
     3    1    4       1
     4    1   23       1
     5    4    5       1
     6    5    6       1
     7    6    7       1
     8    6    8       1
     9    7   12       1
    10    8    9       1
    11    8   10       1
    12   10   11       1
    13   10   12       1
    14   11   45       1
    15   12   13       1
    16   13   14       1
    17   13   22       1
    18   14   15       2
    19   15   16       1
    20   16   17      ar
    21   16   22      ar
    22   17   18       1
    23   17   19      ar
    24   19   20      ar
    25   20   21      ar
    26   21   22      ar
    27   23   24       1
    28   24   25      ar
    29   24   26      ar
    30   24   27       1
    31   27   28       1
    32   28   29       1
    33   29   30       1
    34   29   31       1
    35   30   35       1
    36   31   32       1
    37   31   33       1
    38   33   34       1
    39   33   35       1
    40   35   36       1
    41   36   37      ar
    42   36   44      ar
    43   37   38      ar
    44   38   39       1
    45   38   42      ar
    46   39   40       2
    47   39   41      am
    48   42   43      ar
    49   43   44      ar
    50   45   46      ar
    51   45   47      ar
    52   45   48      ar
    53   43   72       1
    54    5   49       1
    55    5   50       1
    56    6   51       1
    57    8   52       1
    58    9   53       1
    59   10   54       1
    60   12   55       1
    61   14   56       1
    62   18   57       1
    63   18   58       1
    64   20   59       1
    65   44   73       1
    66   28   60       1
    67   28   61       1
    68   29   62       1
    69   31   63       1
    70   32   64       1
    71   33   65       1
    72   34   66       1
    73   35   67       1
    74   37   68       1
    75   41   69       1
    76   41   70       1
    77   42   71       1
@<TRIPOS>SUBSTRUCTURE
     1 NAP301      1 GROUP             4 B     NAP     0 **** NAP B 301
