@<TRIPOS>MOLECULE
4odo_FK5_2_ligand
  126   129     1     0     0
SMALL
NO_CHARGES


@<TRIPOS>ATOM
     1 C1          46.6580    28.7120    10.2770 C.2          1 FK5203   0.0000
     2 C2          47.5920    27.5260    10.4670 C.3          1 FK5203   0.0000
     3 C3          48.1110    27.1010     9.0820 C.3          1 FK5203   0.0000
     4 C4          47.0160    26.3740     8.3000 C.3          1 FK5203   0.0000
     5 C5          46.5470    25.1320     9.0650 C.3          1 FK5203   0.0000
     6 C6          46.0210    25.5650    10.4190 C.3          1 FK5203   0.0000
     7 C8          47.5220    25.9700    12.3650 C.2          1 FK5203   0.0000
     8 C9          46.9760    24.7110    12.9790 C.2          1 FK5203   0.0000
     9 C10         45.8690    24.8540    14.0150 C.3          1 FK5203   0.0000
    10 C11         45.9890    26.1470    14.8640 C.3          1 FK5203   0.0000
    11 C12         44.6740    26.3950    15.6450 C.3          1 FK5203   0.0000
    12 C13         43.4940    26.3050    14.6770 C.3          1 FK5203   0.0000
    13 C14         43.5310    24.9050    14.0170 C.3          1 FK5203   0.0000
    14 C15         42.3360    24.6690    13.0640 C.3          1 FK5203   0.0000
    15 C16         42.0880    25.8630    12.1420 C.3          1 FK5203   0.0000
    16 C17         41.2390    25.5250    10.8970 C.3          1 FK5203   0.0000
    17 C18         39.7480    25.5400    11.2860 C.3          1 FK5203   0.0000
    18 C19         39.1620    26.9010    11.1640 C.2          1 FK5203   0.0000
    19 C20         39.1380    27.6960    12.2190 C.2          1 FK5203   0.0000
    20 C21         38.8880    29.1640    12.1180 C.3          1 FK5203   0.0000
    21 C22         40.2240    29.8660    11.9590 C.2          1 FK5203   0.0000
    22 C23         40.6100    30.1220    10.5100 C.3          1 FK5203   0.0000
    23 C24         42.0930    30.5800    10.4160 C.3          1 FK5203   0.0000
    24 C25         43.1190    29.3950    10.5280 C.3          1 FK5203   0.0000
    25 C26         44.5950    29.8490    10.6710 C.3          1 FK5203   0.0000
    26 C27         44.7890    30.7970    11.8310 C.2          1 FK5203   0.0000
    27 C28         45.1700    32.0420    11.5730 C.2          1 FK5203   0.0000
    28 C29         45.3330    33.1310    12.6040 C.3          1 FK5203   0.0000
    29 C30         46.8160    33.4610    12.8070 C.3          1 FK5203   0.0000
    30 C31         46.9180    34.6310    13.8280 C.3          1 FK5203   0.0000
    31 C32         46.1910    35.8520    13.2640 C.3          1 FK5203   0.0000
    32 C33         44.7150    35.4940    13.1570 C.3          1 FK5203   0.0000
    33 C34         44.5630    34.3580    12.1420 C.3          1 FK5203   0.0000
    34 C35         47.1330    26.0070    15.8530 C.3          1 FK5203   0.0000
    35 C36         41.5210    24.1560    10.2780 C.3          1 FK5203   0.0000
    36 C37         38.6110    27.2700     9.8480 C.3          1 FK5203   0.0000
    37 C38         38.2530    29.6640    13.4140 C.3          1 FK5203   0.0000
    38 C39         36.9400    28.9770    13.6200 C.2          1 FK5203   0.0000
    39 C40         35.8380    29.6790    13.8070 C.2          1 FK5203   0.0000
    40 C41         43.0000    28.5370     9.2670 C.3          1 FK5203   0.0000
    41 C42         44.5420    30.2560    13.2030 C.3          1 FK5203   0.0000
    42 C43         42.0130    27.7900    15.6020 C.3          1 FK5203   0.0000
    43 C44         41.0780    22.9910    14.0060 C.3          1 FK5203   0.0000
    44 C45         48.8190    34.5380    15.1070 C.3          1 FK5203   0.0000
    45 N7          47.0500    26.3450    11.1540 N.am         1 FK5203   0.0000
    46 O1          45.4230    28.6550    10.7950 O.3          1 FK5203   0.0000
    47 O2          47.0720    29.7750     9.8090 O.2          1 FK5203   0.0000
    48 O3          48.4010    26.6230    12.9290 O.2          1 FK5203   0.0000
    49 O4          47.3840    23.6430    12.6630 O.2          1 FK5203   0.0000
    50 O5          44.6930    24.8350    13.2590 O.3          1 FK5203   0.0000
    51 O6          45.8660    23.6930    14.8200 O.3          1 FK5203   0.0000
    52 O7          42.3030    26.4200    15.4350 O.3          1 FK5203   0.0000
    53 O8          41.1360    24.3810    13.7880 O.3          1 FK5203   0.0000
    54 O9          40.8890    30.1790    12.8890 O.2          1 FK5203   0.0000
    55 O10         42.2470    31.2380     9.1880 O.3          1 FK5203   0.0000
    56 O11         48.2840    34.9830    13.8850 O.3          1 FK5203   0.0000
    57 O12         46.4090    36.9030    14.2020 O.3          1 FK5203   0.0000
    58 H1          48.3780    27.8457    10.9961 H            1 FK5203   0.0000
    59 H2          48.8941    26.4899     9.1973 H            1 FK5203   0.0000
    60 H3          48.3945    27.9138     8.5731 H            1 FK5203   0.0000
    61 H4          47.3765    26.0958     7.4097 H            1 FK5203   0.0000
    62 H5          46.2407    26.9915     8.1675 H            1 FK5203   0.0000
    63 H6          47.3144    24.5027     9.1877 H            1 FK5203   0.0000
    64 H7          45.8202    24.6754     8.5520 H            1 FK5203   0.0000
    65 H8          45.7797    24.7544    10.9525 H            1 FK5203   0.0000
    66 H9          45.2082    26.1330    10.2896 H            1 FK5203   0.0000
    67 H10         46.1668    26.9240    14.2602 H            1 FK5203   0.0000
    68 H11         44.6977    27.3041    16.0608 H            1 FK5203   0.0000
    69 H12         44.5738    25.7037    16.3606 H            1 FK5203   0.0000
    70 H13         43.5460    27.0254    13.9854 H            1 FK5203   0.0000
    71 H14         43.5449    24.1978    14.7239 H            1 FK5203   0.0000
    72 H15         42.5491    23.8767    12.4923 H            1 FK5203   0.0000
    73 H16         42.9729    26.2127    11.8344 H            1 FK5203   0.0000
    74 H17         41.6131    26.5712    12.6644 H            1 FK5203   0.0000
    75 H18         41.3954    26.2279    10.2031 H            1 FK5203   0.0000
    76 H19         39.6569    25.2315    12.2329 H            1 FK5203   0.0000
    77 H20         39.2494    24.9172    10.6831 H            1 FK5203   0.0000
    78 H21         39.2938    27.2976    13.1229 H            1 FK5203   0.0000
    79 H22         38.2940    29.3639    11.3388 H            1 FK5203   0.0000
    80 H23         40.0202    30.8363    10.1333 H            1 FK5203   0.0000
    81 H24         40.4914    29.2799     9.9839 H            1 FK5203   0.0000
    82 H25         42.2743    31.2311    11.1530 H            1 FK5203   0.0000
    83 H26         42.8773    28.8354    11.3207 H            1 FK5203   0.0000
    84 H27         44.8577    30.3251     9.8317 H            1 FK5203   0.0000
    85 H28         45.3642    32.2764    10.6205 H            1 FK5203   0.0000
    86 H29         44.9494    32.8155    13.4720 H            1 FK5203   0.0000
    87 H30         47.2242    33.7350    11.9362 H            1 FK5203   0.0000
    88 H31         47.2958    32.6588    13.1623 H            1 FK5203   0.0000
    89 H32         46.5642    34.3710    14.7265 H            1 FK5203   0.0000
    90 H33         46.5595    36.0981    12.3675 H            1 FK5203   0.0000
    91 H34         44.1957    36.2918    12.8506 H            1 FK5203   0.0000
    92 H35         44.3744    35.1971    14.0491 H            1 FK5203   0.0000
    93 H36         43.5949    34.1248    12.0504 H            1 FK5203   0.0000
    94 H37         44.9191    34.6569    11.2566 H            1 FK5203   0.0000
    95 H38         47.2067    26.8423    16.3979 H            1 FK5203   0.0000
    96 H39         46.9582    25.2294    16.4570 H            1 FK5203   0.0000
    97 H40         47.9874    25.8572    15.3554 H            1 FK5203   0.0000
    98 H41         40.9304    24.0219     9.4823 H            1 FK5203   0.0000
    99 H42         42.4787    24.1095     9.9939 H            1 FK5203   0.0000
   100 H43         41.3385    23.4410    10.9529 H            1 FK5203   0.0000
   101 H44         38.2479    28.2009     9.8878 H            1 FK5203   0.0000
   102 H45         39.3342    27.2235     9.1589 H            1 FK5203   0.0000
   103 H46         37.8771    26.6360     9.6043 H            1 FK5203   0.0000
   104 H47         38.1074    30.6516    13.3551 H            1 FK5203   0.0000
   105 H48         38.8598    29.4618    14.1827 H            1 FK5203   0.0000
   106 H49         36.8970    27.9779    13.6160 H            1 FK5203   0.0000
   107 H50         34.9646    29.2116    13.9439 H            1 FK5203   0.0000
   108 H51         35.8765    30.6782    13.8118 H            1 FK5203   0.0000
   109 H52         43.6465    27.7759     9.3195 H            1 FK5203   0.0000
   110 H53         42.0691    28.1792     9.1939 H            1 FK5203   0.0000
   111 H54         43.2067    29.0951     8.4634 H            1 FK5203   0.0000
   112 H55         44.7029    30.9752    13.8789 H            1 FK5203   0.0000
   113 H56         43.5957    29.9400    13.2713 H            1 FK5203   0.0000
   114 H57         45.1622    29.4910    13.3763 H            1 FK5203   0.0000
   115 H58         41.1735    27.8903    16.1360 H            1 FK5203   0.0000
   116 H59         42.7689    28.2346    16.0826 H            1 FK5203   0.0000
   117 H60         41.8909    28.2165    14.7058 H            1 FK5203   0.0000
   118 H61         40.2448    22.7674    14.5118 H            1 FK5203   0.0000
   119 H62         41.0716    22.5156    13.1263 H            1 FK5203   0.0000
   120 H63         41.8764    22.7029    14.5347 H            1 FK5203   0.0000
   121 H64         49.7872    34.7833    15.1560 H            1 FK5203   0.0000
   122 H65         48.3271    34.9696    15.8631 H            1 FK5203   0.0000
   123 H66         48.7232    33.5447    15.1708 H            1 FK5203   0.0000
   124 H67         45.2574    23.0095    14.4169 H            1 FK5203   0.0000
   125 H68         43.1929    31.5480     9.0923 H            1 FK5203   0.0000
   126 H69         45.5295    37.2237    14.5537 H            1 FK5203   0.0000
@<TRIPOS>BOND
     1    1    2       1
     2    1   46       1
     3    1   47       2
     4    2    3       1
     5    2   45       1
     6    3    4       1
     7    4    5       1
     8    5    6       1
     9    6   45       1
    10    7    8       1
    11    7   45      am
    12    7   48       2
    13    8    9       1
    14    8   49       2
    15    9   10       1
    16    9   50       1
    17    9   51       1
    18   10   11       1
    19   10   34       1
    20   11   12       1
    21   12   13       1
    22   12   52       1
    23   13   14       1
    24   13   50       1
    25   14   15       1
    26   14   53       1
    27   15   16       1
    28   16   17       1
    29   16   35       1
    30   17   18       1
    31   18   19       2
    32   18   36       1
    33   19   20       1
    34   20   21       1
    35   20   37       1
    36   21   22       1
    37   21   54       2
    38   22   23       1
    39   23   24       1
    40   23   55       1
    41   24   25       1
    42   24   40       1
    43   25   26       1
    44   25   46       1
    45   26   27       2
    46   26   41       1
    47   27   28       1
    48   28   29       1
    49   28   33       1
    50   29   30       1
    51   30   31       1
    52   30   56       1
    53   31   32       1
    54   31   57       1
    55   32   33       1
    56   37   38       1
    57   38   39       2
    58   42   52       1
    59   43   53       1
    60   44   56       1
    61    2   58       1
    62    3   59       1
    63    3   60       1
    64    4   61       1
    65    4   62       1
    66    5   63       1
    67    5   64       1
    68    6   65       1
    69    6   66       1
    70   10   67       1
    71   11   68       1
    72   11   69       1
    73   12   70       1
    74   13   71       1
    75   14   72       1
    76   15   73       1
    77   15   74       1
    78   16   75       1
    79   17   76       1
    80   17   77       1
    81   19   78       1
    82   20   79       1
    83   22   80       1
    84   22   81       1
    85   23   82       1
    86   24   83       1
    87   25   84       1
    88   27   85       1
    89   28   86       1
    90   29   87       1
    91   29   88       1
    92   30   89       1
    93   31   90       1
    94   32   91       1
    95   32   92       1
    96   33   93       1
    97   33   94       1
    98   34   95       1
    99   34   96       1
   100   34   97       1
   101   35   98       1
   102   35   99       1
   103   35  100       1
   104   36  101       1
   105   36  102       1
   106   36  103       1
   107   37  104       1
   108   37  105       1
   109   38  106       1
   110   39  107       1
   111   39  108       1
   112   40  109       1
   113   40  110       1
   114   40  111       1
   115   41  112       1
   116   41  113       1
   117   41  114       1
   118   42  115       1
   119   42  116       1
   120   42  117       1
   121   43  118       1
   122   43  119       1
   123   43  120       1
   124   44  121       1
   125   44  122       1
   126   44  123       1
   127   51  124       1
   128   55  125       1
   129   57  126       1
@<TRIPOS>SUBSTRUCTURE
     1 FK5203      1 GROUP             4 B     FK5     0 **** FK5 B 203
