@<TRIPOS>MOLECULE
2h3d_NMN_2_ligand
   36    37     1     0     0
SMALL
NO_CHARGES


@<TRIPOS>ATOM
     1 O3P         15.5110     5.1770    27.7850 O.co2        1 NMN4819   0.0000
     2 P           16.3490     5.8040    28.9570 P.3          1 NMN4819   0.0000
     3 O1P         17.7080     6.1150    28.4930 O.co2        1 NMN4819  -1.0000
     4 O2P         16.2650     4.8240    30.0700 O.co2        1 NMN4819  -1.0000
     5 O5R         15.6030     7.1760    29.2700 O.3          1 NMN4819   0.0000
     6 C5R         14.3580     7.2070    30.0670 C.3          1 NMN4819   0.0000
     7 C4R         14.4490     8.3390    31.0820 C.3          1 NMN4819   0.0000
     8 O4R         13.1380     8.6240    31.6500 O.3          1 NMN4819   0.0000
     9 C3R         15.3780     8.0760    32.3270 C.3          1 NMN4819   0.0000
    10 O3R         16.1770     9.2420    32.6290 O.3          1 NMN4819   0.0000
    11 C2R         14.4060     7.7090    33.4090 C.3          1 NMN4819   0.0000
    12 O2R         14.9030     7.8850    34.7350 O.3          1 NMN4819   0.0000
    13 C1R         13.2260     8.5520    33.1150 C.3          1 NMN4819   0.0000
    14 N1          11.9380     7.9900    33.6570 N.ar         1 NMN4819   1.0000
    15 C2          11.6740     8.0810    35.0550 C.ar         1 NMN4819   0.0000
    16 C3          10.4830     7.5530    35.5600 C.ar         1 NMN4819   0.0000
    17 C7          10.2230     7.6630    37.0790 C.2          1 NMN4819   0.0000
    18 O7          11.0820     8.2000    37.7390 O.2          1 NMN4819   0.0000
    19 N7           9.1330     7.1910    37.6180 N.am         1 NMN4819   0.0000
    20 C4           9.4850     6.9100    34.6580 C.ar         1 NMN4819   0.0000
    21 C5           9.7750     6.8330    33.2430 C.ar         1 NMN4819   0.0000
    22 C6          11.0020     7.3690    32.7090 C.ar         1 NMN4819   0.0000
    23 H5R1        14.2438     6.3361    30.5450 H            1 NMN4819   0.0000
    24 H5R2        13.5763     7.3604    29.4625 H            1 NMN4819   0.0000
    25 H4R         14.7750     9.1593    30.6121 H            1 NMN4819   0.0000
    26 H3R         15.9782     7.2987    32.1385 H            1 NMN4819   0.0000
    27 H5          16.3652     9.2720    33.6107 H            1 NMN4819   0.0000
    28 H2R         14.1479     6.7500    33.2917 H            1 NMN4819   0.0000
    29 H7          14.4721     7.2188    35.3436 H            1 NMN4819   0.0000
    30 H1R         13.3713     9.4694    33.4855 H            1 NMN4819   0.0000
    31 H9          12.3334     8.5176    35.6670 H            1 NMN4819   0.0000
    32 H10          8.9863     7.2737    38.6037 H            1 NMN4819   0.0000
    33 H11          8.4441     6.7465    37.0455 H            1 NMN4819   0.0000
    34 H12          8.6316     6.5391    35.0242 H            1 NMN4819   0.0000
    35 H13          9.1155     6.4022    32.6270 H            1 NMN4819   0.0000
    36 H14         11.2083     7.3202    31.7317 H            1 NMN4819   0.0000
@<TRIPOS>BOND
     1    1    2      ar
     2    2    3      ar
     3    2    4      ar
     4    2    5       1
     5    5    6       1
     6    6    7       1
     7    7    8       1
     8    7    9       1
     9    8   13       1
    10    9   10       1
    11    9   11       1
    12   11   12       1
    13   11   13       1
    14   13   14       1
    15   14   15      ar
    16   14   22      ar
    17   15   16      ar
    18   16   17       1
    19   16   20      ar
    20   17   18       2
    21   17   19      am
    22   20   21      ar
    23   21   22      ar
    24   22   36       1
    25   21   35       1
    26    6   23       1
    27    6   24       1
    28    7   25       1
    29    9   26       1
    30   10   27       1
    31   11   28       1
    32   12   29       1
    33   13   30       1
    34   15   31       1
    35   19   32       1
    36   19   33       1
    37   20   34       1
@<TRIPOS>SUBSTRUCTURE
     1 NMN4819     1 GROUP             4 B     NMN     0 **** NMN B4819
