@<TRIPOS>MOLECULE
1r8c_UTP_1_ligand
   40    41     1     0     0
SMALL
NO_CHARGES


@<TRIPOS>ATOM
     1 PA          15.2030    11.6030    34.5940 P.3          1 UTP501   0.0000
     2 O1A         14.8490    10.5230    35.5840 O.co2        1 UTP501   0.0000
     3 O2A         16.0360    11.2880    33.3660 O.co2        1 UTP501  -1.0000
     4 O3A         13.8910    12.3380    34.0080 O.3          1 UTP501   0.0000
     5 O5'         15.9090    12.8390    35.3660 O.3          1 UTP501   0.0000
     6 PB          12.3930    11.7650    33.9330 P.3          1 UTP501   0.0000
     7 O1B         11.6800    12.9140    33.2660 O.co2        1 UTP501   0.0000
     8 O2B         11.9350    11.3260    35.3000 O.co2        1 UTP501  -1.0000
     9 O3B         12.2970    10.6010    32.8220 O.3          1 UTP501   0.0000
    10 PG          12.2970     9.0030    33.0000 P.3          1 UTP501   0.0000
    11 O1G         10.8500     8.6220    32.8300 O.co2        1 UTP501   0.0000
    12 O2G         13.1930     8.5440    31.8480 O.co2        1 UTP501  -1.0000
    13 O3G         12.8700     8.7450    34.3710 O.co2        1 UTP501  -1.0000
    14 C5'         15.2160    13.7570    36.2300 C.3          1 UTP501   0.0000
    15 C4'         15.6060    15.2260    35.9810 C.3          1 UTP501   0.0000
    16 O4'         16.9870    15.4960    36.2930 O.3          1 UTP501   0.0000
    17 C1'         17.6860    16.1410    35.2020 C.3          1 UTP501   0.0000
    18 C2'         16.7020    16.2520    34.0390 C.3          1 UTP501   0.0000
    19 O2'         16.5630    17.5960    33.6180 O.3          1 UTP501   0.0000
    20 C3'         15.3800    15.7060    34.5430 C.3          1 UTP501   0.0000
    21 O3'         14.4110    16.7430    34.5240 O.3          1 UTP501   0.0000
    22 N1          18.9920    15.5240    34.8410 N.pl3        1 UTP501   0.0000
    23 C6          20.0770    16.3240    34.7990 C.2          1 UTP501   0.0000
    24 C2          19.1330    14.2040    34.5680 C.2          1 UTP501   0.0000
    25 O2          18.1620    13.4230    34.5930 O.2          1 UTP501   0.0000
    26 N3          20.3370    13.6660    34.2500 N.pl3        1 UTP501   0.0000
    27 C4          21.4420    14.4380    34.1940 C.2          1 UTP501   0.0000
    28 O4          22.6220    13.9040    33.8770 O.2          1 UTP501   0.0000
    29 C5          21.3240    15.7960    34.4720 C.2          1 UTP501   0.0000
    30 H5'1        15.4313    13.5263    37.1789 H            1 UTP501   0.0000
    31 H5'2        14.2327    13.6578    36.0777 H            1 UTP501   0.0000
    32 H4'         15.0435    15.7943    36.5815 H            1 UTP501   0.0000
    33 H1'         17.8832    17.0748    35.5005 H            1 UTP501   0.0000
    34 H2'         17.0242    15.6940    33.2743 H            1 UTP501   0.0000
    35 H6          16.7087    18.2060    34.3969 H            1 UTP501   0.0000
    36 H3'         15.0805    14.9442    33.9686 H            1 UTP501   0.0000
    37 H8          13.9165    16.7212    33.6551 H            1 UTP501   0.0000
    38 H9          19.9861    17.2987    35.0031 H            1 UTP501   0.0000
    39 H10         20.4062    12.6876    34.0552 H            1 UTP501   0.0000
    40 H11         22.1285    16.3889    34.4374 H            1 UTP501   0.0000
@<TRIPOS>BOND
     1    1    2      ar
     2    1    3      ar
     3    1    4       1
     4    1    5       1
     5    4    6       1
     6    5   14       1
     7    6    7      ar
     8    6    8      ar
     9    6    9       1
    10    9   10       1
    11   10   11      ar
    12   10   12      ar
    13   10   13      ar
    14   14   15       1
    15   15   16       1
    16   15   20       1
    17   16   17       1
    18   17   18       1
    19   17   22       1
    20   18   19       1
    21   18   20       1
    22   20   21       1
    23   22   23       1
    24   22   24       1
    25   23   29       2
    26   24   25       2
    27   24   26       1
    28   26   27       1
    29   27   28       2
    30   27   29       1
    31   29   40       1
    32   26   39       1
    33   23   38       1
    34   21   37       1
    35   14   30       1
    36   14   31       1
    37   15   32       1
    38   17   33       1
    39   18   34       1
    40   19   35       1
    41   20   36       1
@<TRIPOS>SUBSTRUCTURE
     1 UTP501      1 GROUP             4 A     UTP     0 **** UTP A 501
