@<TRIPOS>MOLECULE
4ccz_THG_1_ligand
   53    55     1     0     0
SMALL
NO_CHARGES


@<TRIPOS>ATOM
     1 N3         -34.2340    46.3220     2.8070 N.pl3        1 THG1652   0.0000
     2 C2         -34.8650    45.6410     1.8130 C.2          1 THG1652   0.0000
     3 N1         -34.2230    45.2150     0.7110 N.2          1 THG1652   0.0000
     4 C8A        -32.9190    45.4340     0.5300 C.2          1 THG1652   0.0000
     5 C4A        -32.1630    46.1870     1.5580 C.2          1 THG1652   0.0000
     6 C4         -32.9180    46.6190     2.7550 C.2          1 THG1652   0.0000
     7 N8         -32.2980    45.0200    -0.5960 N.pl3        1 THG1652   0.0000
     8 C7         -30.9210    45.4080    -0.8610 C.3          1 THG1652   0.0000
     9 C6         -30.1310    45.5690     0.4360 C.3          1 THG1652   0.0000
    10 N5         -30.8360    46.3710     1.4170 N.pl3        1 THG1652   0.0000
    11 C9         -29.9160    44.1830     1.0460 C.3          1 THG1652   0.0000
    12 N10        -28.8410    43.4600     0.3930 N.pl3        1 THG1652   0.0000
    13 C4'        -27.5260    43.6730     0.6560 C.ar         1 THG1652   0.0000
    14 C3'        -27.0870    44.6550     1.5480 C.ar         1 THG1652   0.0000
    15 C2'        -25.7280    44.8280     1.7890 C.ar         1 THG1652   0.0000
    16 C1'        -24.7920    44.0200     1.1480 C.ar         1 THG1652   0.0000
    17 C6'        -25.2270    43.0380     0.2600 C.ar         1 THG1652   0.0000
    18 C5'        -26.5860    42.8660     0.0170 C.ar         1 THG1652   0.0000
    19 C11        -23.3290    44.2250     1.4210 C.2          1 THG1652   0.0000
    20 N          -22.4510    44.0900     0.4220 N.am         1 THG1652   0.0000
    21 CA         -21.0350    44.3570     0.5950 C.3          1 THG1652   0.0000
    22 C          -20.8150    45.8190     0.8620 C.2          1 THG1652   0.0000
    23 OX2        -20.2790    46.1490     1.9410 O.co2        1 THG1652   0.0000
    24 OX1        -21.1910    46.6520     0.0080 O.co2        1 THG1652  -1.0000
    25 CB         -20.2440    43.9260    -0.6390 C.3          1 THG1652   0.0000
    26 CG         -20.0670    42.4080    -0.6850 C.3          1 THG1652   0.0000
    27 CD         -19.3010    41.9620    -1.9170 C.2          1 THG1652   0.0000
    28 OE1        -19.0870    40.7380    -2.0660 O.co2        1 THG1652   0.0000
    29 OE2        -18.9040    42.8130    -2.7450 O.co2        1 THG1652  -1.0000
    30 O11        -22.9870    44.5380     2.5520 O.2          1 THG1652   0.0000
    31 O4         -32.3720    47.2460     3.6870 O.2          1 THG1652   0.0000
    32 N2         -36.1920    45.3850     1.9390 N.pl3        1 THG1652   0.0000
    33 H1         -34.7632    46.6128     3.6041 H            1 THG1652   0.0000
    34 H2         -32.7873    44.4439    -1.2508 H            1 THG1652   0.0000
    35 H3         -30.9168    46.2774    -1.3551 H            1 THG1652   0.0000
    36 H4         -30.4862    44.7036    -1.4220 H            1 THG1652   0.0000
    37 H5         -29.2448    45.9875     0.2373 H            1 THG1652   0.0000
    38 H6         -30.3495    47.0436     1.9747 H            1 THG1652   0.0000
    39 H7         -30.7610    43.6560     0.9548 H            1 THG1652   0.0000
    40 H8         -29.6918    44.2884     2.0148 H            1 THG1652   0.0000
    41 H9         -29.0814    42.7676    -0.2873 H            1 THG1652   0.0000
    42 H3'        -27.7531    45.2362     2.0154 H            1 THG1652   0.0000
    43 H2'        -25.4216    45.5358     2.4255 H            1 THG1652   0.0000
    44 H6'        -24.5601    42.4550    -0.2041 H            1 THG1652   0.0000
    45 H5'        -26.8907    42.1584    -0.6206 H            1 THG1652   0.0000
    46 H14        -22.7810    43.7951    -0.4747 H            1 THG1652   0.0000
    47 HA         -20.7061    43.8360     1.3826 H            1 THG1652   0.0000
    48 HB1        -19.3426    44.3582    -0.6151 H            1 THG1652   0.0000
    49 HB2        -20.7338    44.2216    -1.4592 H            1 THG1652   0.0000
    50 HG1        -20.9697    41.9778    -0.6928 H            1 THG1652   0.0000
    51 HG2        -19.5659    42.1166     0.1298 H            1 THG1652   0.0000
    52 H20        -36.6754    44.8858     1.2199 H            1 THG1652   0.0000
    53 H21        -36.6863    45.6956     2.7509 H            1 THG1652   0.0000
@<TRIPOS>BOND
     1    1    2       1
     2    1    6       1
     3    2    3       2
     4    2   32       1
     5    3    4       1
     6    4    5       2
     7    4    7       1
     8    5    6       1
     9    5   10       1
    10    6   31       2
    11    7    8       1
    12    8    9       1
    13    9   10       1
    14    9   11       1
    15   11   12       1
    16   12   13       1
    17   13   14      ar
    18   13   18      ar
    19   14   15      ar
    20   15   16      ar
    21   16   17      ar
    22   16   19       1
    23   17   18      ar
    24   19   20      am
    25   19   30       2
    26   20   21       1
    27   21   22       1
    28   21   25       1
    29   22   23      ar
    30   22   24      ar
    31   25   26       1
    32   26   27       1
    33   27   28      ar
    34   27   29      ar
    35    1   33       1
    36    7   34       1
    37    8   35       1
    38    8   36       1
    39    9   37       1
    40   10   38       1
    41   11   39       1
    42   11   40       1
    43   12   41       1
    44   14   42       1
    45   15   43       1
    46   17   44       1
    47   18   45       1
    48   20   46       1
    49   21   47       1
    50   32   53       1
    51   25   48       1
    52   25   49       1
    53   26   50       1
    54   26   51       1
    55   32   52       1
@<TRIPOS>SUBSTRUCTURE
     1 THG1652     1 GROUP             4 A     THG     0 **** THG A1652
