@<TRIPOS>MOLECULE
3nlc_FAD_1_ligand
   82    87     1     0     0
SMALL
NO_CHARGES


@<TRIPOS>ATOM
     1 PA          17.9900    25.6940    67.8300 P.3          1 FAD601   0.0000
     2 O1A         16.7760    26.5970    67.6910 O.co2        1 FAD601   0.0000
     3 O2A         18.8970    26.0110    66.6790 O.co2        1 FAD601  -1.0000
     4 O5B         17.5790    24.1360    67.8400 O.3          1 FAD601   0.0000
     5 C5B         16.4300    23.6830    68.4740 C.3          1 FAD601   0.0000
     6 C4B         15.7280    22.4270    67.9320 C.3          1 FAD601   0.0000
     7 O4B         14.9180    21.8310    68.8920 O.3          1 FAD601   0.0000
     8 C3B         14.8590    22.7930    66.8280 C.3          1 FAD601   0.0000
     9 O3B         15.1940    22.0330    65.6910 O.3          1 FAD601   0.0000
    10 C2B         13.5310    22.5170    67.2690 C.3          1 FAD601   0.0000
    11 O2B         12.7060    22.0800    66.1890 O.3          1 FAD601   0.0000
    12 C1B         13.7140    21.4820    68.2710 C.3          1 FAD601   0.0000
    13 N9A         12.6570    21.3910    69.2940 N.pl3        1 FAD601   0.0000
    14 C8A         12.0360    22.4080    69.9030 C.2          1 FAD601   0.0000
    15 N7A         11.1700    21.9020    70.8020 N.2          1 FAD601   0.0000
    16 C5A         11.2560    20.5570    70.7550 C.ar         1 FAD601   0.0000
    17 C6A         10.6100    19.5200    71.4360 C.ar         1 FAD601   0.0000
    18 N6A          9.6560    19.8150    72.3920 N.pl3        1 FAD601   0.0000
    19 N1A         10.9130    18.2470    71.1510 N.ar         1 FAD601   0.0000
    20 C2A         11.8410    17.9730    70.2140 C.ar         1 FAD601   0.0000
    21 N3A         12.4810    18.9380    69.5480 N.ar         1 FAD601   0.0000
    22 C4A         12.2040    20.2230    69.7970 C.ar         1 FAD601   0.0000
    23 N1          23.5410    32.0860    63.9880 N.2          1 FAD601   0.0000
    24 C2          24.8140    32.3800    63.7040 C.2          1 FAD601   0.0000
    25 O2          25.7200    32.0790    64.6630 O.2          1 FAD601   0.0000
    26 N3          25.1950    32.8370    62.5050 N.pl3        1 FAD601   0.0000
    27 C4          24.2730    33.0240    61.5330 C.2          1 FAD601   0.0000
    28 O4          24.6810    33.5260    60.2170 O.2          1 FAD601   0.0000
    29 C4X         22.9250    32.7320    61.8030 C.2          1 FAD601   0.0000
    30 N5          21.9430    32.8950    60.8930 N.2          1 FAD601   0.0000
    31 C5X         20.6590    32.5830    61.1940 C.ar         1 FAD601   0.0000
    32 C6          19.6360    32.7330    60.2480 C.ar         1 FAD601   0.0000
    33 C7          18.3090    32.4080    60.5690 C.ar         1 FAD601   0.0000
    34 C7M         17.1830    32.5330    59.5080 C.3          1 FAD601   0.0000
    35 C8          18.0030    31.9220    61.8370 C.ar         1 FAD601   0.0000
    36 C8M         16.5390    31.5290    62.1960 C.3          1 FAD601   0.0000
    37 C9          19.0110    31.7850    62.7860 C.ar         1 FAD601   0.0000
    38 C9A         20.3440    32.0920    62.4590 C.ar         1 FAD601   0.0000
    39 N10         21.3170    31.9520    63.3910 N.pl3        1 FAD601   0.0000
    40 C10         22.5890    32.2540    63.0740 C.2          1 FAD601   0.0000
    41 C1'         20.9900    31.6740    64.8040 C.3          1 FAD601   0.0000
    42 C2'         21.0670    30.2160    65.1760 C.2          1 FAD601   0.0000
    43 O2'         20.8520    29.3350    64.2350 O.2          1 FAD601   0.0000
    44 C3'         20.8310    29.8440    66.6030 C.3          1 FAD601   0.0000
    45 O3'         21.3860    30.7090    67.5340 O.3          1 FAD601   0.0000
    46 C4'         21.3610    28.4630    66.8280 C.3          1 FAD601   0.0000
    47 O4'         20.8330    27.6410    65.8740 O.3          1 FAD601   0.0000
    48 C5'         20.9120    28.0150    68.1690 C.3          1 FAD601   0.0000
    49 O5'         21.0540    26.6360    68.3720 O.3          1 FAD601   0.0000
    50 P           20.2270    25.7680    69.4620 P.3          1 FAD601   0.0000
    51 O1P         20.5320    26.2270    70.8430 O.co2        1 FAD601   0.0000
    52 O2P         20.4880    24.2990    69.2890 O.co2        1 FAD601  -1.0000
    53 O3P         18.6930    26.0410    69.1840 O.3          1 FAD601   0.0000
    54 H5B1        15.7640    24.4283    68.4420 H            1 FAD601   0.0000
    55 H5B2        16.6745    23.4951    69.4253 H            1 FAD601   0.0000
    56 H4B         16.4127    21.7701    67.6163 H            1 FAD601   0.0000
    57 H3B         14.9556    23.7678    66.6269 H            1 FAD601   0.0000
    58 H5          15.0806    21.0606    65.8948 H            1 FAD601   0.0000
    59 H2B         13.1358    23.3331    67.6907 H            1 FAD601   0.0000
    60 H7          13.0895    21.2456    65.7930 H            1 FAD601   0.0000
    61 H1B         13.8171    20.5959    67.8192 H            1 FAD601   0.0000
    62 H8A         12.1890    23.3794    69.7214 H            1 FAD601   0.0000
    63 H6A1         9.1924    19.0758    72.8805 H            1 FAD601   0.0000
    64 H6A2         9.4295    20.7676    72.5950 H            1 FAD601   0.0000
    65 H2A         12.0574    17.0181    70.0107 H            1 FAD601   0.0000
    66 H13         26.1582    33.0395    62.3283 H            1 FAD601   0.0000
    67 H14         19.8540    33.0754    59.3341 H            1 FAD601   0.0000
    68 H7M1        16.3107    32.2607    59.9141 H            1 FAD601   0.0000
    69 H7M2        17.1236    33.4809    59.1951 H            1 FAD601   0.0000
    70 H7M3        17.3893    31.9379    58.7313 H            1 FAD601   0.0000
    71 H8M1        16.5036    31.2027    63.1406 H            1 FAD601   0.0000
    72 H8M2        15.9456    32.3278    62.0968 H            1 FAD601   0.0000
    73 H8M3        16.2281    30.8043    61.5811 H            1 FAD601   0.0000
    74 H21         18.7863    31.4661    63.7068 H            1 FAD601   0.0000
    75 H1'1        20.0594    31.9947    64.9803 H            1 FAD601   0.0000
    76 H1'2        21.6317    32.1798    65.3805 H            1 FAD601   0.0000
    77 H3'         19.8429    29.8221    66.7551 H            1 FAD601   0.0000
    78 H25         20.6615    31.0903    68.1082 H            1 FAD601   0.0000
    79 H4'         22.3597    28.4604    66.7761 H            1 FAD601   0.0000
    80 H27         20.3078    26.9130    66.3148 H            1 FAD601   0.0000
    81 H5'1        19.9467    28.2533    68.2759 H            1 FAD601   0.0000
    82 H5'2        21.4523    28.4944    68.8606 H            1 FAD601   0.0000
@<TRIPOS>BOND
     1    1    2      ar
     2    1    3      ar
     3    1    4       1
     4    1   53       1
     5    4    5       1
     6    5    6       1
     7    6    7       1
     8    6    8       1
     9    7   12       1
    10    8    9       1
    11    8   10       1
    12   10   11       1
    13   10   12       1
    14   12   13       1
    15   13   14       1
    16   13   22       1
    17   14   15       2
    18   15   16       1
    19   16   17      ar
    20   16   22      ar
    21   17   18       1
    22   17   19      ar
    23   19   20      ar
    24   20   21      ar
    25   21   22      ar
    26   23   24       1
    27   23   40       2
    28   24   25       2
    29   24   26       1
    30   26   27       1
    31   27   28       2
    32   27   29       1
    33   29   30       2
    34   29   40       1
    35   30   31       1
    36   31   32      ar
    37   31   38      ar
    38   32   33      ar
    39   33   34       1
    40   33   35      ar
    41   35   36       1
    42   35   37      ar
    43   37   38      ar
    44   38   39       1
    45   39   40       1
    46   39   41       1
    47   41   42       1
    48   42   43       2
    49   42   44       1
    50   44   45       1
    51   44   46       1
    52   46   47       1
    53   46   48       1
    54   48   49       1
    55   49   50       1
    56   50   51      ar
    57   50   52      ar
    58   50   53       1
    59   48   82       1
    60    5   54       1
    61    5   55       1
    62    6   56       1
    63    8   57       1
    64    9   58       1
    65   10   59       1
    66   11   60       1
    67   12   61       1
    68   14   62       1
    69   18   63       1
    70   18   64       1
    71   20   65       1
    72   26   66       1
    73   32   67       1
    74   34   68       1
    75   34   69       1
    76   34   70       1
    77   36   71       1
    78   36   72       1
    79   36   73       1
    80   37   74       1
    81   41   75       1
    82   41   76       1
    83   44   77       1
    84   45   78       1
    85   46   79       1
    86   47   80       1
    87   48   81       1
@<TRIPOS>SUBSTRUCTURE
     1 FAD601      1 GROUP             4 A     FAD     0 **** FAD A 601
