@<TRIPOS>MOLECULE
1xid_ASC_1_ligand
   18    18     1     0     0
SMALL
NO_CHARGES


@<TRIPOS>ATOM
     1 C1          33.7170    31.7430    57.4010 C.2          1 ASC389   0.0000
     2 C2          34.0770    33.0500    58.0420 C.2          1 ASC389   0.0000
     3 C3          35.2800    33.4330    57.6410 C.2          1 ASC389   0.0000
     4 C4          35.8270    32.3570    56.7650 C.3          1 ASC389   0.0000
     5 C5          37.0700    31.6570    57.3350 C.3          1 ASC389   0.0000
     6 C6          37.4660    30.1960    57.0250 C.3          1 ASC389   0.0000
     7 O1          32.6470    31.1640    57.3420 O.2          1 ASC389   0.0000
     8 O2          33.3120    33.7940    58.8710 O.2          1 ASC389   0.0000
     9 O3          35.7420    34.5650    57.4820 O.2          1 ASC389   0.0000
    10 O4          34.8300    31.2960    56.7440 O.3          1 ASC389   0.0000
    11 O5          37.0010    31.8330    58.7540 O.3          1 ASC389   0.0000
    12 O6          38.9280    30.2240    57.2830 O.3          1 ASC389   0.0000
    13 H1          36.0021    32.7014    55.8426 H            1 ASC389   0.0000
    14 H2          37.8469    32.2114    57.0365 H            1 ASC389   0.0000
    15 H3          37.2674    29.9576    56.0744 H            1 ASC389   0.0000
    16 H4          36.9999    29.5542    57.6340 H            1 ASC389   0.0000
    17 H5          36.1791    32.3534    58.9858 H            1 ASC389   0.0000
    18 H6          39.2287    29.3228    57.5951 H            1 ASC389   0.0000
@<TRIPOS>BOND
     1    1    2       1
     2    1    7       2
     3    1   10       1
     4    2    3       1
     5    2    8       2
     6    3    4       1
     7    3    9       2
     8    4    5       1
     9    4   10       1
    10    5    6       1
    11    5   11       1
    12    6   12       1
    13    4   13       1
    14    5   14       1
    15    6   15       1
    16    6   16       1
    17   11   17       1
    18   12   18       1
@<TRIPOS>SUBSTRUCTURE
     1 ASC389      1 GROUP             4 A     ASC     0 **** ASC A 389
