@<TRIPOS>MOLECULE
4b1b_FAD_1_ligand
   84    89     1     0     0
SMALL
NO_CHARGES


@<TRIPOS>ATOM
     1 PA         -27.3430     5.6020   -25.5780 P.3          1 FAD1506   0.0000
     2 O1A        -26.5130     4.5850   -24.8320 O.co2        1 FAD1506   0.0000
     3 O2A        -27.2400     6.9640   -24.9330 O.co2        1 FAD1506  -1.0000
     4 O5B        -28.8740     5.1070   -25.6440 O.3          1 FAD1506   0.0000
     5 C5B        -29.1810     3.7400   -25.8110 C.3          1 FAD1506   0.0000
     6 C4B        -30.3350     3.3640   -24.8890 C.3          1 FAD1506   0.0000
     7 O4B        -31.0700     2.2800   -25.4300 O.3          1 FAD1506   0.0000
     8 C3B        -29.8320     2.9300   -23.5210 C.3          1 FAD1506   0.0000
     9 O3B        -30.4090     3.7430   -22.5260 O.3          1 FAD1506   0.0000
    10 C2B        -30.3000     1.4960   -23.3600 C.3          1 FAD1506   0.0000
    11 O2B        -30.8270     1.2830   -22.0720 O.3          1 FAD1506   0.0000
    12 C1B        -31.3860     1.3520   -24.4100 C.3          1 FAD1506   0.0000
    13 N9A        -31.4550    -0.0240   -24.9370 N.pl3        1 FAD1506   0.0000
    14 C8A        -30.4050    -0.8640   -25.1990 C.2          1 FAD1506   0.0000
    15 N7A        -30.8990    -2.0330   -25.6670 N.2          1 FAD1506   0.0000
    16 C5A        -32.2480    -1.9520   -25.7070 C.ar         1 FAD1506   0.0000
    17 C6A        -33.2290    -2.8530   -26.1030 C.ar         1 FAD1506   0.0000
    18 N6A        -32.8910    -3.8980   -26.8520 N.pl3        1 FAD1506   0.0000
    19 N1A        -34.5560    -2.4790   -26.0290 N.ar         1 FAD1506   0.0000
    20 C2A        -34.9000    -1.2230   -25.5710 C.ar         1 FAD1506   0.0000
    21 N3A        -33.9170    -0.3360   -25.1820 N.ar         1 FAD1506   0.0000
    22 C4A        -32.6110    -0.6940   -25.2500 C.ar         1 FAD1506   0.0000
    23 N1         -20.8410    12.9170   -24.9690 N.2          1 FAD1506   0.0000
    24 C2         -20.7640    14.2880   -25.1140 C.2          1 FAD1506   0.0000
    25 O2         -21.1140    14.8150   -26.1680 O.2          1 FAD1506   0.0000
    26 N3         -20.2940    15.0690   -24.0780 N.pl3        1 FAD1506   0.0000
    27 C4         -19.8990    14.4840   -22.8940 C.2          1 FAD1506   0.0000
    28 O4         -19.4810    15.1840   -21.9730 O.2          1 FAD1506   0.0000
    29 C4X        -19.9740    13.1040   -22.7430 C.2          1 FAD1506   0.0000
    30 N5         -19.5810    12.5120   -21.5610 N.2          1 FAD1506   0.0000
    31 C5X        -19.6580    11.1410   -21.4160 C.ar         1 FAD1506   0.0000
    32 C6         -19.2610    10.5440   -20.2250 C.ar         1 FAD1506   0.0000
    33 C7         -19.3390     9.1640   -20.0780 C.ar         1 FAD1506   0.0000
    34 C7M        -18.9110     8.5220   -18.7920 C.3          1 FAD1506   0.0000
    35 C8         -19.8130     8.3800   -21.1240 C.ar         1 FAD1506   0.0000
    36 C8M        -19.8970     6.8910   -20.9680 C.3          1 FAD1506   0.0000
    37 C9         -20.2090     8.9770   -22.3160 C.ar         1 FAD1506   0.0000
    38 C9A        -20.1320    10.3570   -22.4620 C.ar         1 FAD1506   0.0000
    39 N10        -20.5270    10.9510   -23.6440 N.pl3        1 FAD1506   0.0000
    40 C10        -20.4480    12.3210   -23.7890 C.2          1 FAD1506   0.0000
    41 C1'        -21.0340    10.1070   -24.7770 C.3          1 FAD1506   0.0000
    42 C2'        -22.5570    10.0990   -24.8010 C.3          1 FAD1506   0.0000
    43 O2'        -23.0430     9.6510   -23.5570 O.3          1 FAD1506   0.0000
    44 C3'        -23.0650     9.1780   -25.9040 C.3          1 FAD1506   0.0000
    45 O3'        -22.2240     9.2810   -27.0310 O.3          1 FAD1506   0.0000
    46 C4'        -24.4930     9.5310   -26.3010 C.3          1 FAD1506   0.0000
    47 O4'        -25.3350     9.4090   -25.1770 O.3          1 FAD1506   0.0000
    48 C5'        -24.9900     8.6100   -27.4090 C.3          1 FAD1506   0.0000
    49 O5'        -26.2660     8.1190   -27.0670 O.3          1 FAD1506   0.0000
    50 P          -26.9890     7.0100   -27.9810 P.3          1 FAD1506   0.0000
    51 O1P        -28.4410     7.3800   -28.1690 O.co2        1 FAD1506   0.0000
    52 O2P        -26.2880     6.8650   -29.3110 O.co2        1 FAD1506  -1.0000
    53 O3P        -26.8770     5.6530   -27.1200 O.3          1 FAD1506   0.0000
    54 H5B1       -28.3789     3.1877   -25.5838 H            1 FAD1506   0.0000
    55 H5B2       -29.4441     3.5708   -26.7608 H            1 FAD1506   0.0000
    56 H4B        -30.9412     4.1521   -24.7821 H            1 FAD1506   0.0000
    57 H3B        -28.8341     2.9806   -23.4812 H            1 FAD1506   0.0000
    58 H5         -31.4044     3.6532   -22.5580 H            1 FAD1506   0.0000
    59 H2B        -29.5501     0.8599   -23.5416 H            1 FAD1506   0.0000
    60 H7         -31.1287     0.3333   -21.9882 H            1 FAD1506   0.0000
    61 H1B        -32.2682     1.5944   -24.0064 H            1 FAD1506   0.0000
    62 H8A        -29.4373    -0.6493   -25.0667 H            1 FAD1506   0.0000
    63 H6A1       -33.5896    -4.5521   -27.1421 H            1 FAD1506   0.0000
    64 H6A2       -31.9382    -4.0300   -27.1253 H            1 FAD1506   0.0000
    65 H2A        -35.8623    -0.9557   -25.5211 H            1 FAD1506   0.0000
    66 H13        -20.2398    16.0616   -24.1864 H            1 FAD1506   0.0000
    67 H14        -18.9190    11.1079   -19.4733 H            1 FAD1506   0.0000
    68 H7M1       -19.0322     7.5315   -18.8574 H            1 FAD1506   0.0000
    69 H7M2       -17.9479     8.7294   -18.6203 H            1 FAD1506   0.0000
    70 H7M3       -19.4675     8.8770   -18.0408 H            1 FAD1506   0.0000
    71 H8M1       -20.2564     6.4874   -21.8094 H            1 FAD1506   0.0000
    72 H8M2       -18.9854     6.5231   -20.7848 H            1 FAD1506   0.0000
    73 H8M3       -20.5052     6.6695   -20.2058 H            1 FAD1506   0.0000
    74 H21        -20.5493     8.4131   -23.0684 H            1 FAD1506   0.0000
    75 H1'1       -20.7023     9.1705   -24.6630 H            1 FAD1506   0.0000
    76 H1'2       -20.6938    10.4782   -25.6410 H            1 FAD1506   0.0000
    77 H2'        -22.8884    11.0274   -24.9688 H            1 FAD1506   0.0000
    78 H25        -23.9195     9.1880   -23.6887 H            1 FAD1506   0.0000
    79 H3'        -23.0458     8.2350   -25.5718 H            1 FAD1506   0.0000
    80 H27        -22.2194     8.4110   -27.5241 H            1 FAD1506   0.0000
    81 H4'        -24.5174    10.4763   -26.6264 H            1 FAD1506   0.0000
    82 H29        -26.0438     8.7287   -25.3637 H            1 FAD1506   0.0000
    83 H5'1       -24.3554     7.8448   -27.5175 H            1 FAD1506   0.0000
    84 H5'2       -25.0470     9.1200   -28.2673 H            1 FAD1506   0.0000
@<TRIPOS>BOND
     1    1    2      ar
     2    1    3      ar
     3    1    4       1
     4    1   53       1
     5    4    5       1
     6    5    6       1
     7    6    7       1
     8    6    8       1
     9    7   12       1
    10    8    9       1
    11    8   10       1
    12   10   11       1
    13   10   12       1
    14   12   13       1
    15   13   14       1
    16   13   22       1
    17   14   15       2
    18   15   16       1
    19   16   17      ar
    20   16   22      ar
    21   17   18       1
    22   17   19      ar
    23   19   20      ar
    24   20   21      ar
    25   21   22      ar
    26   23   24       1
    27   23   40       2
    28   24   25       2
    29   24   26       1
    30   26   27       1
    31   27   28       2
    32   27   29       1
    33   29   30       2
    34   29   40       1
    35   30   31       1
    36   31   32      ar
    37   31   38      ar
    38   32   33      ar
    39   33   34       1
    40   33   35      ar
    41   35   36       1
    42   35   37      ar
    43   37   38      ar
    44   38   39       1
    45   39   40       1
    46   39   41       1
    47   41   42       1
    48   42   43       1
    49   42   44       1
    50   44   45       1
    51   44   46       1
    52   46   47       1
    53   46   48       1
    54   48   49       1
    55   49   50       1
    56   50   51      ar
    57   50   52      ar
    58   50   53       1
    59   48   84       1
    60    5   54       1
    61    5   55       1
    62    6   56       1
    63    8   57       1
    64    9   58       1
    65   10   59       1
    66   11   60       1
    67   12   61       1
    68   14   62       1
    69   18   63       1
    70   18   64       1
    71   20   65       1
    72   26   66       1
    73   32   67       1
    74   34   68       1
    75   34   69       1
    76   34   70       1
    77   36   71       1
    78   36   72       1
    79   36   73       1
    80   37   74       1
    81   41   75       1
    82   41   76       1
    83   42   77       1
    84   43   78       1
    85   44   79       1
    86   45   80       1
    87   46   81       1
    88   47   82       1
    89   48   83       1
@<TRIPOS>SUBSTRUCTURE
     1 FAD1506     1 GROUP             4 A     FAD     0 **** FAD A1506
