@<TRIPOS>MOLECULE
4zoh_MCN_1_ligand
   66    70     1     0     0
SMALL
NO_CHARGES


@<TRIPOS>ATOM
     1 N1          89.6590    50.9320    23.5130 N.pl3        1 MCN801   0.0000
     2 C2          89.4240    49.7060    24.1140 C.2          1 MCN801   0.0000
     3 N3          89.8050    48.5330    23.5180 N.2          1 MCN801   0.0000
     4 C4          90.4300    48.5980    22.2780 C.2          1 MCN801   0.0000
     5 C5          90.6710    49.8240    21.6600 C.2          1 MCN801   0.0000
     6 C6          90.3050    51.0130    22.2920 C.2          1 MCN801   0.0000
     7 O2          88.8730    49.5960    25.2140 O.2          1 MCN801   0.0000
     8 N4          90.7900    47.4620    21.7200 N.pl3        1 MCN801   0.0000
     9 C1'         89.2380    52.1320    24.2390 C.3          1 MCN801   0.0000
    10 C2D         90.4010    52.6490    25.0890 C.3          1 MCN801   0.0000
    11 O2'         90.3800    52.1630    26.3970 O.3          1 MCN801   0.0000
    12 C3'         90.1180    54.1260    25.1630 C.3          1 MCN801   0.0000
    13 C4D         89.7830    54.3690    23.7500 C.3          1 MCN801   0.0000
    14 O4D         88.9620    53.1880    23.3490 O.3          1 MCN801   0.0000
    15 O3'         89.0400    54.4440    25.9730 O.3          1 MCN801   0.0000
    16 C5'         91.2300    54.3980    23.2960 C.3          1 MCN801   0.0000
    17 O5'         91.3320    54.3100    21.9940 O.3          1 MCN801   0.0000
    18 PA          92.7390    54.0260    21.2330 P.3          1 MCN801   0.0000
    19 O1A         93.8710    53.5300    21.9880 O.co2        1 MCN801   0.0000
    20 O2A         92.1690    53.2560    20.0750 O.co2        1 MCN801  -1.0000
    21 O3A         92.9260    55.6020    20.6610 O.3          1 MCN801   0.0000
    22 PB          93.6450    56.7420    21.5490 P.3          1 MCN801   0.0000
    23 O1B         95.1370    56.6600    21.2690 O.co2        1 MCN801   0.0000
    24 O2B         93.2800    56.7770    22.9680 O.co2        1 MCN801  -1.0000
    25 O3B         93.0100    57.9700    20.8940 O.3          1 MCN801   0.0000
    26 C10         93.5740    58.6570    19.7430 C.3          1 MCN801   0.0000
    27 C9'         92.5190    58.8790    18.6870 C.3          1 MCN801   0.0000
    28 C8'         92.9430    59.7760    17.6490 C.2          1 MCN801   0.0000
    29 S8'         94.4280    59.4590    16.7640 S.2          1 MCN801   0.0000
    30 C7'         92.1740    60.8170    17.2240 C.2          1 MCN801   0.0000
    31 S7'         92.6120    61.8550    15.8410 S.2          1 MCN801   0.0000
    32 C6'         90.8610    61.0840    17.7780 C.3          1 MCN801   0.0000
    33 C7          90.3210    59.8200    18.5260 C.3          1 MCN801   0.0000
    34 O9'         91.3640    59.3650    19.3640 O.3          1 MCN801   0.0000
    35 N5'         90.8150    62.2900    18.6030 N.pl3        1 MCN801   0.0000
    36 C4A         89.9210    62.4600    19.6790 C.2          1 MCN801   0.0000
    37 N8'         89.1420    60.1860    19.3700 N.pl3        1 MCN801   0.0000
    38 C4B         89.0600    61.3790    20.0250 C.2          1 MCN801   0.0000
    39 N1'         88.1530    61.4790    21.0000 N.2          1 MCN801   0.0000
    40 C2'         88.0820    62.6060    21.7040 C.2          1 MCN801   0.0000
    41 N2'         87.1920    62.6660    22.6720 N.pl3        1 MCN801   0.0000
    42 N3'         88.9040    63.7480    21.4270 N.pl3        1 MCN801   0.0000
    43 C4'         89.8440    63.6930    20.3720 C.2          1 MCN801   0.0000
    44 O4'         90.5640    64.7000    20.1090 O.2          1 MCN801   0.0000
    45 H1          91.1076    49.8515    20.7608 H            1 MCN801   0.0000
    46 H2          90.5041    51.8993    21.8740 H            1 MCN801   0.0000
    47 H3          91.2425    47.4643    20.8282 H            1 MCN801   0.0000
    48 H4          90.6111    46.5964    22.1877 H            1 MCN801   0.0000
    49 H1'         88.4421    51.9365    24.8119 H            1 MCN801   0.0000
    50 H2D         91.2807    52.4693    24.6488 H            1 MCN801   0.0000
    51 H2'         89.9568    51.2571    26.4092 H            1 MCN801   0.0000
    52 H3'         90.9345    54.6364    25.4328 H            1 MCN801   0.0000
    53 H4D         89.3115    55.2389    23.6052 H            1 MCN801   0.0000
    54 H10         88.9076    55.4352    25.9778 H            1 MCN801   0.0000
    55 H5'1        91.7153    53.6287    23.7116 H            1 MCN801   0.0000
    56 H5'2        91.6465    55.2562    23.5962 H            1 MCN801   0.0000
    57 H13         94.3121    58.1026    19.3586 H            1 MCN801   0.0000
    58 H14         93.9385    59.5414    20.0344 H            1 MCN801   0.0000
    59 H9'         92.2955    57.9971    18.2720 H            1 MCN801   0.0000
    60 H6'         90.2491    61.2425    17.0031 H            1 MCN801   0.0000
    61 H17         90.0695    59.1095    17.8688 H            1 MCN801   0.0000
    62 H5'         91.4508    63.0327    18.3929 H            1 MCN801   0.0000
    63 H8'         88.3887    59.5341    19.4569 H            1 MCN801   0.0000
    64 H2'1        87.1083    63.4960    23.2235 H            1 MCN801   0.0000
    65 H2'2        86.5996    61.8816    22.8559 H            1 MCN801   0.0000
    66 H22         88.8130    64.5784    21.9767 H            1 MCN801   0.0000
@<TRIPOS>BOND
     1    1    2       1
     2    1    6       1
     3    1    9       1
     4    2    3       1
     5    2    7       2
     6    3    4       2
     7    4    5       1
     8    4    8       1
     9    5    6       2
    10    9   10       1
    11    9   14       1
    12   10   11       1
    13   10   12       1
    14   12   13       1
    15   12   15       1
    16   13   14       1
    17   13   16       1
    18   16   17       1
    19   17   18       1
    20   18   19      ar
    21   18   20      ar
    22   18   21       1
    23   21   22       1
    24   22   23      ar
    25   22   24      ar
    26   22   25       1
    27   25   26       1
    28   26   27       1
    29   27   28       1
    30   27   34       1
    31   28   29       2
    32   28   30       1
    33   30   31       2
    34   30   32       1
    35   32   33       1
    36   32   35       1
    37   33   34       1
    38   33   37       1
    39   35   36       1
    40   36   38       2
    41   36   43       1
    42   37   38       1
    43   38   39       1
    44   39   40       2
    45   40   41       1
    46   40   42       1
    47   42   43       1
    48   43   44       2
    49    5   45       1
    50    6   46       1
    51    8   47       1
    52    8   48       1
    53    9   49       1
    54   10   50       1
    55   11   51       1
    56   12   52       1
    57   13   53       1
    58   15   54       1
    59   16   55       1
    60   16   56       1
    61   41   65       1
    62   41   64       1
    63   26   57       1
    64   26   58       1
    65   27   59       1
    66   32   60       1
    67   33   61       1
    68   35   62       1
    69   37   63       1
    70   42   66       1
@<TRIPOS>SUBSTRUCTURE
     1 MCN801      1 GROUP             4 A     MCN     0 **** MCN A 801
