@<TRIPOS>MOLECULE
1h4q_PRI_1_ligand
   17    17     1     0     0
SMALL
NO_CHARGES


@<TRIPOS>ATOM
     1 CB          23.8070   104.3130   101.0000 C.3          1 PRI1480   0.0000
     2 CG          22.9310   104.3860    99.7430 C.3          1 PRI1480   0.0000
     3 C           22.4210   105.2000   102.9030 C.2          1 PRI1480   0.0000
     4 OT1         21.4280   105.0860   103.6610 O.2          1 PRI1480   0.0000
     5 N           21.5880   103.4050   101.4120 N.4          1 PRI1480   1.0000
     6 CD          21.7520   103.4240    99.9480 C.3          1 PRI1480   0.0000
     7 CA          22.7900   103.9680   102.0820 C.3          1 PRI1480   0.0000
     8 HB1         24.2495   105.1905   101.1849 H            1 PRI1480   0.0000
     9 HB2         24.5030   103.5998   100.9160 H            1 PRI1480   0.0000
    10 HG1         23.4609   104.1111    98.9407 H            1 PRI1480   0.0000
    11 HG2         22.5930   105.3185    99.6157 H            1 PRI1480   0.0000
    12 H5          22.9420   106.0513   102.8403 H            1 PRI1480   0.0000
    13 H6          21.4546   102.4615   101.7153 H            1 PRI1480   0.0000
    14 HD1         21.9677   102.5121    99.5989 H            1 PRI1480   0.0000
    15 HD2         20.9269   103.7663    99.4986 H            1 PRI1480   0.0000
    16 HA          23.1804   103.2757   102.6888 H            1 PRI1480   0.0000
    17 H10         20.7878   103.9511   101.6599 H            1 PRI1480   0.0000
@<TRIPOS>BOND
     1    1    2       1
     2    1    7       1
     3    2    6       1
     4    3    4       2
     5    3    7       1
     6    5    6       1
     7    5    7       1
     8    1    8       1
     9    1    9       1
    10    2   10       1
    11    2   11       1
    12    3   12       1
    13    5   13       1
    14    6   14       1
    15    6   15       1
    16    7   16       1
    17    5   17       1
@<TRIPOS>SUBSTRUCTURE
     1 PRI1480     1 GROUP             4 A     PRI     0 **** PRI A1480
