@<TRIPOS>MOLECULE
5br7_FAD_1_ligand
   84    89     1     0     0
SMALL
NO_CHARGES


@<TRIPOS>ATOM
     1 PA          82.1090    55.7300    42.2350 P.3          1 FAD401   0.0000
     2 O1A         80.8630    56.5030    42.6620 O.co2        1 FAD401   0.0000
     3 O2A         81.7020    54.4920    41.4620 O.co2        1 FAD401  -1.0000
     4 O5B         82.9990    56.6210    41.2560 O.3          1 FAD401   0.0000
     5 C5B         83.8840    55.9920    40.3400 C.3          1 FAD401   0.0000
     6 C4B         84.0550    56.8670    39.1550 C.3          1 FAD401   0.0000
     7 O4B         85.1630    56.3400    38.3650 O.3          1 FAD401   0.0000
     8 C3B         82.8820    56.8310    38.2950 C.3          1 FAD401   0.0000
     9 O3B         82.4320    58.1720    38.0650 O.3          1 FAD401   0.0000
    10 C2B         83.3030    56.2050    37.0690 C.3          1 FAD401   0.0000
    11 O2B         82.6170    56.7270    35.9330 O.3          1 FAD401   0.0000
    12 C1B         84.7200    56.5070    36.9920 C.3          1 FAD401   0.0000
    13 N9A         85.4210    55.6360    36.1300 N.pl3        1 FAD401   0.0000
    14 C8A         85.3450    54.2770    36.0700 C.2          1 FAD401   0.0000
    15 N7A         86.1580    53.8240    35.1090 N.2          1 FAD401   0.0000
    16 C5A         86.7930    54.8680    34.5270 C.ar         1 FAD401   0.0000
    17 C6A         87.7130    54.9960    33.5080 C.ar         1 FAD401   0.0000
    18 N6A         88.2010    53.8330    32.8220 N.pl3        1 FAD401   0.0000
    19 N1A         88.1490    56.1990    33.1520 N.ar         1 FAD401   0.0000
    20 C2A         87.7120    57.3060    33.7610 C.ar         1 FAD401   0.0000
    21 N3A         86.7880    57.2200    34.7710 N.ar         1 FAD401   0.0000
    22 C4A         86.3260    56.0520    35.1650 C.ar         1 FAD401   0.0000
    23 N1          76.6380    55.8520    49.7440 N.2          1 FAD401   0.0000
    24 C2          76.0100    56.5080    50.9010 C.2          1 FAD401   0.0000
    25 O2          76.7160    57.0800    51.7310 O.2          1 FAD401   0.0000
    26 N3          74.5770    56.4970    51.0410 N.pl3        1 FAD401   0.0000
    27 C4          73.7810    55.8480    50.1220 C.2          1 FAD401   0.0000
    28 O4          72.5570    55.8480    50.2400 O.2          1 FAD401   0.0000
    29 C4X         74.3740    55.1950    48.9700 C.2          1 FAD401   0.0000
    30 N5          73.6020    54.5810    48.0600 N.2          1 FAD401   0.0000
    31 C5X         74.2260    53.9100    46.9200 C.ar         1 FAD401   0.0000
    32 C6          73.4220    53.2480    45.9700 C.ar         1 FAD401   0.0000
    33 C7          74.0230    52.6150    44.8880 C.ar         1 FAD401   0.0000
    34 C7M         73.1510    51.9110    43.8730 C.3          1 FAD401   0.0000
    35 C8          75.4020    52.6510    44.7480 C.ar         1 FAD401   0.0000
    36 C8M         76.0960    51.9960    43.6080 C.3          1 FAD401   0.0000
    37 C9          76.2090    53.3010    45.6870 C.ar         1 FAD401   0.0000
    38 C9A         75.6260    53.9270    46.7640 C.ar         1 FAD401   0.0000
    39 N10         76.4180    54.6040    47.7220 N.pl3        1 FAD401   0.0000
    40 C10         75.8650    55.2360    48.8310 C.2          1 FAD401   0.0000
    41 C1'         77.8920    54.6260    47.5670 C.3          1 FAD401   0.0000
    42 C2'         78.3660    55.9350    46.9340 C.3          1 FAD401   0.0000
    43 O2'         78.0220    56.0610    45.6000 O.3          1 FAD401   0.0000
    44 C3'         79.8460    56.1680    47.1220 C.3          1 FAD401   0.0000
    45 O3'         80.1510    57.4890    46.9160 O.3          1 FAD401   0.0000
    46 C4'         80.7520    55.3890    46.1940 C.3          1 FAD401   0.0000
    47 O4'         80.6480    54.0330    46.4410 O.3          1 FAD401   0.0000
    48 C5'         82.1260    55.9110    46.4700 C.3          1 FAD401   0.0000
    49 O5'         83.1640    55.1740    45.8820 O.3          1 FAD401   0.0000
    50 P           83.8600    55.7050    44.5540 P.3          1 FAD401   0.0000
    51 O1P         84.1350    57.1590    44.5970 O.co2        1 FAD401   0.0000
    52 O2P         85.1240    54.9260    44.3760 O.co2        1 FAD401  -1.0000
    53 O3P         82.8900    55.1520    43.4400 O.3          1 FAD401   0.0000
    54 H5B1        83.5023    55.1127    40.0551 H            1 FAD401   0.0000
    55 H5B2        84.7706    55.8442    40.7783 H            1 FAD401   0.0000
    56 H4B         84.2476    57.8057    39.4410 H            1 FAD401   0.0000
    57 H3B         82.1565    56.2933    38.7246 H            1 FAD401   0.0000
    58 H5          83.1593    58.6963    37.6221 H            1 FAD401   0.0000
    59 H2B         83.1669    55.2159    37.1259 H            1 FAD401   0.0000
    60 H7          82.7956    57.7080    35.8575 H            1 FAD401   0.0000
    61 H1B         84.8526    57.4549    36.7025 H            1 FAD401   0.0000
    62 H8A         84.7695    53.7055    36.6549 H            1 FAD401   0.0000
    63 H6A1        88.8682    53.9312    32.0836 H            1 FAD401   0.0000
    64 H6A2        87.8737    52.9247    33.0826 H            1 FAD401   0.0000
    65 H2A         88.0601    58.2001    33.4791 H            1 FAD401   0.0000
    66 H13         74.1536    56.9667    51.8156 H            1 FAD401   0.0000
    67 H14         72.4275    53.2338    46.0735 H            1 FAD401   0.0000
    68 H7M1        73.7266    51.5084    43.1612 H            1 FAD401   0.0000
    69 H7M2        72.6278    51.1894    44.3264 H            1 FAD401   0.0000
    70 H7M3        72.5219    52.5696    43.4601 H            1 FAD401   0.0000
    71 H8M1        77.0823    52.1378    43.6923 H            1 FAD401   0.0000
    72 H8M2        75.8983    51.0158    43.6161 H            1 FAD401   0.0000
    73 H8M3        75.7742    52.3939    42.7488 H            1 FAD401   0.0000
    74 H21         77.2028    53.3106    45.5762 H            1 FAD401   0.0000
    75 H1'1        78.1694    53.8629    46.9832 H            1 FAD401   0.0000
    76 H1'2        78.3155    54.5278    48.4675 H            1 FAD401   0.0000
    77 H2'         77.8974    56.6727    47.4200 H            1 FAD401   0.0000
    78 H25         78.3603    56.9344    45.2496 H            1 FAD401   0.0000
    79 H3'         80.0842    55.9334    48.0644 H            1 FAD401   0.0000
    80 H27         80.3691    57.6342    45.9509 H            1 FAD401   0.0000
    81 H4'         80.5042    55.5784    45.2439 H            1 FAD401   0.0000
    82 H29         80.4271    53.8858    47.4051 H            1 FAD401   0.0000
    83 H5'1        82.2660    55.9102    47.4601 H            1 FAD401   0.0000
    84 H5'2        82.1772    56.8489    46.1269 H            1 FAD401   0.0000
@<TRIPOS>BOND
     1    1    2      ar
     2    1    3      ar
     3    1    4       1
     4    1   53       1
     5    4    5       1
     6    5    6       1
     7    6    7       1
     8    6    8       1
     9    7   12       1
    10    8    9       1
    11    8   10       1
    12   10   11       1
    13   10   12       1
    14   12   13       1
    15   13   14       1
    16   13   22       1
    17   14   15       2
    18   15   16       1
    19   16   17      ar
    20   16   22      ar
    21   17   18       1
    22   17   19      ar
    23   19   20      ar
    24   20   21      ar
    25   21   22      ar
    26   23   24       1
    27   23   40       2
    28   24   25       2
    29   24   26       1
    30   26   27       1
    31   27   28       2
    32   27   29       1
    33   29   30       2
    34   29   40       1
    35   30   31       1
    36   31   32      ar
    37   31   38      ar
    38   32   33      ar
    39   33   34       1
    40   33   35      ar
    41   35   36       1
    42   35   37      ar
    43   37   38      ar
    44   38   39       1
    45   39   40       1
    46   39   41       1
    47   41   42       1
    48   42   43       1
    49   42   44       1
    50   44   45       1
    51   44   46       1
    52   46   47       1
    53   46   48       1
    54   48   49       1
    55   49   50       1
    56   50   51      ar
    57   50   52      ar
    58   50   53       1
    59   48   84       1
    60    5   54       1
    61    5   55       1
    62    6   56       1
    63    8   57       1
    64    9   58       1
    65   10   59       1
    66   11   60       1
    67   12   61       1
    68   14   62       1
    69   18   63       1
    70   18   64       1
    71   20   65       1
    72   26   66       1
    73   32   67       1
    74   34   68       1
    75   34   69       1
    76   34   70       1
    77   36   71       1
    78   36   72       1
    79   36   73       1
    80   37   74       1
    81   41   75       1
    82   41   76       1
    83   42   77       1
    84   43   78       1
    85   44   79       1
    86   45   80       1
    87   46   81       1
    88   47   82       1
    89   48   83       1
@<TRIPOS>SUBSTRUCTURE
     1 FAD401      1 GROUP             4 A     FAD     0 **** FAD A 401
