@<TRIPOS>MOLECULE
4phu_2YB_1_ligand
   68    71     1     0     0
SMALL
USER_CHARGES


@<TRIPOS>ATOM
     1 C4         -54.9970    -0.8710    59.6860 C.ar         1 2YB2401   0.0000
     2 C6         -56.3440     0.8570    60.7020 C.3          1 2YB2401   0.0000
     3 C7         -57.7790     1.0020    61.2050 C.3          1 2YB2401   0.0000
     4 C8         -57.7360     1.0580    62.7320 C.3          1 2YB2401   0.0000
     5 C10        -60.5810     1.2750    62.7050 C.3          1 2YB2401   0.0000
     6 C13        -54.6330    -2.2070    59.5990 C.ar         1 2YB2401   0.0000
     7 C15        -53.1780    -4.0550    58.8160 C.3          1 2YB2401   0.0000
     8 C17        -51.5760    -2.0010    57.3990 C.ar         1 2YB2401   0.0000
     9 C20        -49.2720    -2.7140    56.0140 C.ar         1 2YB2401   0.0000
    10 C21        -49.1550    -2.0820    57.2450 C.ar         1 2YB2401   0.0000
    11 C22        -47.7840    -1.7910    57.8180 C.3          1 2YB2401   0.0000
    12 C24        -46.1080    -2.9890    59.1470 C.ar         1 2YB2401   0.0000
    13 C26        -44.0330    -1.9850    59.8090 C.ar         1 2YB2401   0.0000
    14 C28        -42.2460    -3.6120    60.8170 C.3          1 2YB2401   0.0000
    15 C1         -52.3910     0.8440    57.5560 C.3          1 2YB2401   0.0000
    16 C2         -53.1530    -0.2560    58.2620 C.ar         1 2YB2401   0.0000
    17 C3         -54.2530     0.0970    59.0140 C.ar         1 2YB2401   0.0000
    18 O5         -56.0900    -0.5310    60.4250 O.3          1 2YB2401   0.0000
    19 S9         -59.2290     0.3370    63.4850 S.o2         1 2YB2401   0.0000
    20 O11        -59.3430    -1.0340    63.1080 O.2          1 2YB2401   0.0000
    21 O12        -59.1770     0.6650    64.8730 O.2          1 2YB2401   0.0000
    22 C14        -53.5300    -2.5820    58.8620 C.ar         1 2YB2401   0.0000
    23 C16        -52.7790    -1.6080    58.1840 C.ar         1 2YB2401   0.0000
    24 C18        -51.6860    -2.6290    56.1520 C.ar         1 2YB2401   0.0000
    25 C19        -50.5300    -2.9790    55.4760 C.ar         1 2YB2401   0.0000
    26 O23        -47.3600    -2.9080    58.6180 O.3          1 2YB2401   0.0000
    27 C25        -45.3080    -1.8550    59.2730 C.ar         1 2YB2401   0.0000
    28 C27        -43.5690    -3.2140    60.2190 C.ar         1 2YB2401   0.0000
    29 C30        -41.2210    -3.3910    59.7090 C.3          1 2YB2401   0.0000
    30 C31        -39.8020    -3.3040    60.1950 C.2          1 2YB2401   0.0000
    31 O32        -39.4350    -3.0020    61.4670 O.co2        1 2YB2401  -0.5000
    32 O33        -38.9740    -3.5320    59.3430 O.co2        1 2YB2401  -0.5000
    33 C34        -42.4310    -5.1170    61.1530 C.3          1 2YB2401   0.0000
    34 O35        -43.6980    -5.4660    60.5480 O.3          1 2YB2401   0.0000
    35 C36        -44.3480    -4.3550    60.0980 C.ar         1 2YB2401   0.0000
    36 C37        -45.6330    -4.2310    59.5640 C.ar         1 2YB2401   0.0000
    37 C38        -50.3040    -1.7330    57.9500 C.ar         1 2YB2401   0.0000
    38 H1         -55.7078     1.1823    61.4016 H            1 2YB2401   0.0000
    39 H2         -56.2243     1.3941    59.8670 H            1 2YB2401   0.0000
    40 H3         -58.3241     0.2178    60.9086 H            1 2YB2401   0.0000
    41 H4         -58.1822     1.8433    60.8450 H            1 2YB2401   0.0000
    42 H5         -57.6597     2.0133    63.0178 H            1 2YB2401   0.0000
    43 H6         -56.9361     0.5497    63.0511 H            1 2YB2401   0.0000
    44 H7         -61.4587     0.9498    63.0570 H            1 2YB2401   0.0000
    45 H8         -60.4770     2.2471    62.9154 H            1 2YB2401   0.0000
    46 H9         -60.5498     1.1432    61.7142 H            1 2YB2401   0.0000
    47 H10        -55.1737    -2.9017    60.0735 H            1 2YB2401   0.0000
    48 H11        -52.3632    -4.1855    58.2511 H            1 2YB2401   0.0000
    49 H12        -52.9971    -4.3836    59.7430 H            1 2YB2401   0.0000
    50 H13        -53.9414    -4.5680    58.4236 H            1 2YB2401   0.0000
    51 H14        -48.4496    -2.9802    55.5112 H            1 2YB2401   0.0000
    52 H15        -47.8264    -0.9693    58.3864 H            1 2YB2401   0.0000
    53 H16        -47.1333    -1.6473    57.0724 H            1 2YB2401   0.0000
    54 H17        -43.4477    -1.1791    59.8976 H            1 2YB2401   0.0000
    55 H18        -42.0315    -3.0743    61.6324 H            1 2YB2401   0.0000
    56 H19        -51.6236     0.4475    57.0521 H            1 2YB2401   0.0000
    57 H20        -53.0004     1.3155    56.9185 H            1 2YB2401   0.0000
    58 H21        -52.0453     1.4961    58.2308 H            1 2YB2401   0.0000
    59 H22        -54.5201     1.0585    59.0781 H            1 2YB2401   0.0000
    60 H23        -52.5843    -2.8212    55.7568 H            1 2YB2401   0.0000
    61 H24        -50.5987    -3.4299    54.5861 H            1 2YB2401   0.0000
    62 H25        -45.6469    -0.9604    58.9817 H            1 2YB2401   0.0000
    63 H26        -41.4451    -2.5370    59.2395 H            1 2YB2401   0.0000
    64 H27        -41.2861    -4.1527    59.0644 H            1 2YB2401   0.0000
    65 H28        -42.4604    -5.2579    62.1426 H            1 2YB2401   0.0000
    66 H29        -41.6894    -5.6612    60.7607 H            1 2YB2401   0.0000
    67 H30        -46.2160    -5.0391    59.4804 H            1 2YB2401   0.0000
    68 H31        -50.2283    -1.2933    58.8450 H            1 2YB2401   0.0000
@<TRIPOS>BOND
     1    1    6      ar
     2    1   17      ar
     3    1   18       1
     4    2    3       1
     5    2   18       1
     6    3    4       1
     7    4   19       1
     8    5   19       1
     9    6   22      ar
    10    7   22       1
    11    8   23       1
    12    8   24      ar
    13    8   37      ar
    14    9   10      ar
    15    9   25      ar
    16   10   11       1
    17   10   37      ar
    18   11   26       1
    19   12   26       1
    20   12   27      ar
    21   12   36      ar
    22   13   27      ar
    23   13   28      ar
    24   14   28       1
    25   14   29       1
    26   14   33       1
    27   15   16       1
    28   16   17      ar
    29   16   23      ar
    30   19   20       2
    31   19   21       2
    32   22   23      ar
    33   24   25      ar
    34   28   35      ar
    35   29   30       1
    36   30   31      ar
    37   30   32      ar
    38   33   34       1
    39   34   35       1
    40   35   36      ar
    41    2   38       1
    42    2   39       1
    43    3   40       1
    44    3   41       1
    45    4   42       1
    46    4   43       1
    47    5   44       1
    48    5   45       1
    49    5   46       1
    50    6   47       1
    51    7   48       1
    52    7   49       1
    53    7   50       1
    54    9   51       1
    55   11   52       1
    56   11   53       1
    57   13   54       1
    58   14   55       1
    59   15   56       1
    60   15   57       1
    61   15   58       1
    62   17   59       1
    63   24   60       1
    64   25   61       1
    65   27   62       1
    66   29   63       1
    67   29   64       1
    68   37   68       1
    69   33   65       1
    70   33   66       1
    71   36   67       1
@<TRIPOS>SUBSTRUCTURE
     1 2YB2401     1 GROUP             4 A     2YB     0 **** 2YB A2401
