@<TRIPOS>MOLECULE
4euf_NAD_1_ligand
   70    74     1     0     0
SMALL
NO_CHARGES


@<TRIPOS>ATOM
     1 PA          -5.7160    -4.4770    17.1900 P.3          1 NAD1001   0.0000
     2 O1A         -4.7670    -3.6670    17.8700 O.co2        1 NAD1001   0.0000
     3 O2A         -5.4580    -5.8880    17.0890 O.co2        1 NAD1001  -1.0000
     4 O5B         -7.1140    -4.3010    17.8400 O.3          1 NAD1001   0.0000
     5 C5B         -7.9380    -5.3760    18.3130 C.3          1 NAD1001   0.0000
     6 C4B         -9.1210    -4.9440    19.2070 C.3          1 NAD1001   0.0000
     7 O4B        -10.0430    -5.9900    19.2250 O.3          1 NAD1001   0.0000
     8 C3B         -8.7710    -4.9010    20.6220 C.3          1 NAD1001   0.0000
     9 O3B         -9.5920    -4.0030    21.1290 O.3          1 NAD1001   0.0000
    10 C2B         -9.3060    -6.1660    21.1180 C.3          1 NAD1001   0.0000
    11 O2B         -9.6030    -6.0340    22.4290 O.3          1 NAD1001   0.0000
    12 C1B        -10.5390    -6.0980    20.4740 C.3          1 NAD1001   0.0000
    13 N9A        -11.1480    -7.4000    20.5280 N.pl3        1 NAD1001   0.0000
    14 C8A        -10.4650    -8.5590    20.1510 C.2          1 NAD1001   0.0000
    15 N7A        -11.3960    -9.5910    20.3940 N.2          1 NAD1001   0.0000
    16 C5A        -12.4820    -9.0620    20.8900 C.ar         1 NAD1001   0.0000
    17 C6A        -13.6190    -9.6210    21.2270 C.ar         1 NAD1001   0.0000
    18 N6A        -13.7010   -10.9100    21.0840 N.pl3        1 NAD1001   0.0000
    19 N1A        -14.6140    -8.9530    21.7360 N.ar         1 NAD1001   0.0000
    20 C2A        -14.4820    -7.6200    21.8880 C.ar         1 NAD1001   0.0000
    21 N3A        -13.3250    -7.0280    21.4690 N.ar         1 NAD1001   0.0000
    22 C4A        -12.3310    -7.7550    20.9850 C.ar         1 NAD1001   0.0000
    23 O3          -5.9620    -4.0080    15.7250 O.3          1 NAD1001   0.0000
    24 PN          -5.6640    -2.7170    14.9720 P.3          1 NAD1001   0.0000
    25 O1N         -4.2630    -2.5630    14.8010 O.co2        1 NAD1001   0.0000
    26 O2N         -6.5150    -1.6780    15.4110 O.co2        1 NAD1001  -1.0000
    27 O5D         -6.2430    -2.8800    13.6330 O.3          1 NAD1001   0.0000
    28 C5D         -7.6610    -2.7100    13.5780 C.3          1 NAD1001   0.0000
    29 C4D         -8.1980    -2.8610    12.1630 C.3          1 NAD1001   0.0000
    30 O4D         -7.0580    -2.6050    11.4130 O.3          1 NAD1001   0.0000
    31 C3D         -8.4580    -4.2810    11.9180 C.3          1 NAD1001   0.0000
    32 O3D         -9.8040    -4.3260    11.5600 O.3          1 NAD1001   0.0000
    33 C2D         -7.4640    -4.6540    10.7890 C.3          1 NAD1001   0.0000
    34 O2D         -8.1290    -5.3410     9.8200 O.3          1 NAD1001   0.0000
    35 C1D         -7.1820    -3.3300    10.2220 C.3          1 NAD1001   0.0000
    36 N1N         -5.8550    -3.0300     9.5910 N.ar         1 NAD1001   1.0000
    37 C2N         -4.7610    -3.9190     9.4270 C.ar         1 NAD1001   0.0000
    38 C3N         -3.6080    -3.3770     8.8220 C.ar         1 NAD1001   0.0000
    39 C7N         -2.4890    -4.1110     8.5500 C.2          1 NAD1001   0.0000
    40 O7N         -1.3508    -3.4756     8.2032 O.2          1 NAD1001   0.0000
    41 N7N         -2.7515    -5.3832     8.4459 N.am         1 NAD1001   0.0000
    42 C4N         -3.5190    -2.0420     8.4070 C.ar         1 NAD1001   0.0000
    43 C5N         -4.5640    -1.1760     8.5420 C.ar         1 NAD1001   0.0000
    44 C6N         -5.6970    -1.6970     9.1420 C.ar         1 NAD1001   0.0000
    45 H5B1        -7.3617    -6.0001    18.8406 H            1 NAD1001   0.0000
    46 H5B2        -8.3086    -5.8562    17.5180 H            1 NAD1001   0.0000
    47 H4B         -9.5323    -4.0871    18.8963 H            1 NAD1001   0.0000
    48 H3B         -7.8020    -4.7460    20.8145 H            1 NAD1001   0.0000
    49 H5          -9.4187    -3.9087    22.1093 H            1 NAD1001   0.0000
    50 H2B         -8.7580    -6.9711    20.8910 H            1 NAD1001   0.0000
    51 H7          -8.8048    -6.2815    22.9782 H            1 NAD1001   0.0000
    52 H1B        -11.1271    -5.3427    20.7632 H            1 NAD1001   0.0000
    53 H8A         -9.5347    -8.6385    19.7930 H            1 NAD1001   0.0000
    54 H6A1       -14.5458   -11.3872    21.3261 H            1 NAD1001   0.0000
    55 H6A2       -12.9193   -11.4247    20.7319 H            1 NAD1001   0.0000
    56 H2A        -15.2147    -7.0771    22.2983 H            1 NAD1001   0.0000
    57 H5D1        -7.8900    -1.7966    13.9146 H            1 NAD1001   0.0000
    58 H5D2        -8.0916    -3.3981    14.1620 H            1 NAD1001   0.0000
    59 H4D         -8.9699    -2.2613    11.9520 H            1 NAD1001   0.0000
    60 H3D         -8.2872    -4.8240    12.7402 H            1 NAD1001   0.0000
    61 H17        -10.3022    -4.9022    12.2079 H            1 NAD1001   0.0000
    62 H2D         -6.6468    -5.1259    11.1200 H            1 NAD1001   0.0000
    63 H19         -9.0908    -5.4336    10.0775 H            1 NAD1001   0.0000
    64 H1D         -7.9415    -2.9971     9.6632 H            1 NAD1001   0.0000
    65 H2N         -4.8050    -4.8732     9.7229 H            1 NAD1001   0.0000
    66 H7N1        -2.1490    -5.9759     7.9113 H            1 NAD1001   0.0000
    67 H7N2        -3.5553    -5.7667     8.9006 H            1 NAD1001   0.0000
    68 H4N         -2.6658    -1.7150     8.0006 H            1 NAD1001   0.0000
    69 H5N         -4.5148    -0.2278     8.2283 H            1 NAD1001   0.0000
    70 H6N         -6.4717    -1.0777     9.2695 H            1 NAD1001   0.0000
@<TRIPOS>BOND
     1    1    2      ar
     2    1    3      ar
     3    1    4       1
     4    1   23       1
     5    4    5       1
     6    5    6       1
     7    6    7       1
     8    6    8       1
     9    7   12       1
    10    8    9       1
    11    8   10       1
    12   10   11       1
    13   10   12       1
    14   12   13       1
    15   13   14       1
    16   13   22       1
    17   14   15       2
    18   15   16       1
    19   16   17      ar
    20   16   22      ar
    21   17   18       1
    22   17   19      ar
    23   19   20      ar
    24   20   21      ar
    25   21   22      ar
    26   23   24       1
    27   24   25      ar
    28   24   26      ar
    29   24   27       1
    30   27   28       1
    31   28   29       1
    32   29   30       1
    33   29   31       1
    34   30   35       1
    35   31   32       1
    36   31   33       1
    37   33   34       1
    38   33   35       1
    39   35   36       1
    40   36   37      ar
    41   36   44      ar
    42   37   38      ar
    43   38   39       1
    44   38   42      ar
    45   39   40       2
    46   39   41      am
    47   42   43      ar
    48   43   44      ar
    49   44   70       1
    50    5   45       1
    51    5   46       1
    52    6   47       1
    53    8   48       1
    54    9   49       1
    55   10   50       1
    56   11   51       1
    57   12   52       1
    58   14   53       1
    59   18   54       1
    60   18   55       1
    61   20   56       1
    62   43   69       1
    63   28   57       1
    64   28   58       1
    65   29   59       1
    66   31   60       1
    67   32   61       1
    68   33   62       1
    69   34   63       1
    70   35   64       1
    71   37   65       1
    72   41   66       1
    73   41   67       1
    74   42   68       1
@<TRIPOS>SUBSTRUCTURE
     1 NAD1001     1 GROUP             4 A     NAD     0 **** NAD A1001
