@<TRIPOS>MOLECULE
2jae_FAD_1_ligand
   84    89     1     0     0
SMALL
NO_CHARGES


@<TRIPOS>ATOM
     1 PA          22.0300    31.7490    18.9010 P.3          1 FAD1490   0.0000
     2 O1A         22.5000    32.2010    17.5490 O.co2        1 FAD1490   0.0000
     3 O2A         20.5490    31.8430    19.1690 O.co2        1 FAD1490  -1.0000
     4 O5B         22.5420    30.2500    19.1430 O.3          1 FAD1490   0.0000
     5 C5B         21.9730    29.4200    20.1390 C.3          1 FAD1490   0.0000
     6 C4B         22.0860    27.9750    19.6880 C.3          1 FAD1490   0.0000
     7 O4B         21.4790    27.1630    20.6780 O.3          1 FAD1490   0.0000
     8 C3B         21.3480    27.7100    18.3740 C.3          1 FAD1490   0.0000
     9 O3B         22.2110    27.1730    17.3950 O.3          1 FAD1490   0.0000
    10 C2B         20.2490    26.7410    18.7840 C.3          1 FAD1490   0.0000
    11 O2B         19.8640    25.8200    17.7870 O.3          1 FAD1490   0.0000
    12 C1B         20.8610    26.0900    20.0120 C.3          1 FAD1490   0.0000
    13 N9A         19.8720    25.4430    20.8870 N.pl3        1 FAD1490   0.0000
    14 C8A         18.6890    25.9610    21.3430 C.2          1 FAD1490   0.0000
    15 N7A         18.0860    25.0490    22.1430 N.2          1 FAD1490   0.0000
    16 C5A         18.8870    23.9540    22.1950 C.ar         1 FAD1490   0.0000
    17 C6A         18.7930    22.7370    22.8630 C.ar         1 FAD1490   0.0000
    18 N6A         17.7650    22.4020    23.6450 N.pl3        1 FAD1490   0.0000
    19 N1A         19.8240    21.8520    22.7180 N.ar         1 FAD1490   0.0000
    20 C2A         20.9420    22.1510    21.9770 C.ar         1 FAD1490   0.0000
    21 N3A         21.0420    23.3330    21.2880 N.ar         1 FAD1490   0.0000
    22 C4A         20.0260    24.2100    21.4280 C.ar         1 FAD1490   0.0000
    23 N1          24.0540    40.0520    14.0410 N.2          1 FAD1490   0.0000
    24 C2          24.9590    40.7680    13.3030 C.2          1 FAD1490   0.0000
    25 O2          26.1520    40.7610    13.6040 O.2          1 FAD1490   0.0000
    26 N3          24.5300    41.5450    12.2590 N.pl3        1 FAD1490   0.0000
    27 C4          23.2080    41.5910    11.8850 C.2          1 FAD1490   0.0000
    28 O4          22.9060    42.1410    10.8100 O.2          1 FAD1490   0.0000
    29 C4X         22.2630    41.0010    12.7120 C.2          1 FAD1490   0.0000
    30 N5          20.9080    41.0820    12.4180 N.2          1 FAD1490   0.0000
    31 C5X         20.0700    40.0990    12.9290 C.ar         1 FAD1490   0.0000
    32 C6          18.7440    40.0450    12.5180 C.ar         1 FAD1490   0.0000
    33 C7          17.8830    39.0490    12.9920 C.ar         1 FAD1490   0.0000
    34 C7M         16.4820    38.9860    12.4560 C.3          1 FAD1490   0.0000
    35 C8          18.3710    38.0810    13.8830 C.ar         1 FAD1490   0.0000
    36 C8M         17.5130    36.9620    14.4100 C.3          1 FAD1490   0.0000
    37 C9          19.6850    38.1740    14.3310 C.ar         1 FAD1490   0.0000
    38 C9A         20.5320    39.1980    13.8930 C.ar         1 FAD1490   0.0000
    39 N10         21.8480    39.2900    14.3350 N.pl3        1 FAD1490   0.0000
    40 C10         22.7230    40.1420    13.7100 C.2          1 FAD1490   0.0000
    41 C1'         22.2490    38.7760    15.6860 C.3          1 FAD1490   0.0000
    42 C2'         22.9660    37.4290    15.6380 C.3          1 FAD1490   0.0000
    43 O2'         22.2560    36.5050    14.8300 O.3          1 FAD1490   0.0000
    44 C3'         23.0990    36.9370    17.0810 C.3          1 FAD1490   0.0000
    45 O3'         23.7950    37.9130    17.8290 O.3          1 FAD1490   0.0000
    46 C4'         23.8470    35.6230    17.2660 C.3          1 FAD1490   0.0000
    47 O4'         23.3180    34.6160    16.4340 O.3          1 FAD1490   0.0000
    48 C5'         23.7280    35.1920    18.7200 C.3          1 FAD1490   0.0000
    49 O5'         24.5110    34.0500    18.9520 O.3          1 FAD1490   0.0000
    50 P           24.2450    33.1510    20.2480 P.3          1 FAD1490   0.0000
    51 O1P         25.2260    32.0200    20.1810 O.co2        1 FAD1490   0.0000
    52 O2P         24.2020    34.0060    21.4810 O.co2        1 FAD1490  -1.0000
    53 O3P         22.7320    32.6200    20.0590 O.3          1 FAD1490   0.0000
    54 H5B1        21.0104    29.6587    20.2668 H            1 FAD1490   0.0000
    55 H5B2        22.4643    29.5432    21.0012 H            1 FAD1490   0.0000
    56 H4B         23.0495    27.7257    19.5906 H            1 FAD1490   0.0000
    57 H3B         20.9416    28.5594    18.0372 H            1 FAD1490   0.0000
    58 H5          22.5915    26.3087    17.7240 H            1 FAD1490   0.0000
    59 H2B         19.4455    27.2659    19.0648 H            1 FAD1490   0.0000
    60 H7          20.6527    25.2641    17.5242 H            1 FAD1490   0.0000
    61 H1B         21.5517    25.4233    19.7321 H            1 FAD1490   0.0000
    62 H8A         18.3283    26.8669    21.1211 H            1 FAD1490   0.0000
    63 H6A1        17.7524    21.5117    24.1002 H            1 FAD1490   0.0000
    64 H6A2        17.0072    23.0413    23.7759 H            1 FAD1490   0.0000
    65 H2A         21.6961    21.4953    21.9394 H            1 FAD1490   0.0000
    66 H13         25.1971    42.0938    11.7552 H            1 FAD1490   0.0000
    67 H14         18.3998    40.7281    11.8739 H            1 FAD1490   0.0000
    68 H7M1        15.9938    38.2274    12.8875 H            1 FAD1490   0.0000
    69 H7M2        16.0093    39.8440    12.6571 H            1 FAD1490   0.0000
    70 H7M3        16.5097    38.8447    11.4664 H            1 FAD1490   0.0000
    71 H8M1        18.0536    36.3893    15.0262 H            1 FAD1490   0.0000
    72 H8M2        16.7346    37.3448    14.9076 H            1 FAD1490   0.0000
    73 H8M3        17.1808    36.4086    13.6462 H            1 FAD1490   0.0000
    74 H21         20.0310    37.4954    14.9790 H            1 FAD1490   0.0000
    75 H1'1        21.4251    38.6761    16.2438 H            1 FAD1490   0.0000
    76 H1'2        22.8598    39.4445    16.1103 H            1 FAD1490   0.0000
    77 H2'         23.8799    37.5609    15.2542 H            1 FAD1490   0.0000
    78 H25         22.4129    35.5771    15.1683 H            1 FAD1490   0.0000
    79 H3'         22.1820    36.8365    17.4671 H            1 FAD1490   0.0000
    80 H27         23.2161    38.2340    18.5786 H            1 FAD1490   0.0000
    81 H4'         24.8119    35.7603    17.0423 H            1 FAD1490   0.0000
    82 H29         22.9877    33.8582    16.9966 H            1 FAD1490   0.0000
    83 H5'1        22.7717    34.9844    18.9259 H            1 FAD1490   0.0000
    84 H5'2        24.0428    35.9343    19.3115 H            1 FAD1490   0.0000
@<TRIPOS>BOND
     1    1    2      ar
     2    1    3      ar
     3    1    4       1
     4    1   53       1
     5    4    5       1
     6    5    6       1
     7    6    7       1
     8    6    8       1
     9    7   12       1
    10    8    9       1
    11    8   10       1
    12   10   11       1
    13   10   12       1
    14   12   13       1
    15   13   14       1
    16   13   22       1
    17   14   15       2
    18   15   16       1
    19   16   17      ar
    20   16   22      ar
    21   17   18       1
    22   17   19      ar
    23   19   20      ar
    24   20   21      ar
    25   21   22      ar
    26   23   24       1
    27   23   40       2
    28   24   25       2
    29   24   26       1
    30   26   27       1
    31   27   28       2
    32   27   29       1
    33   29   30       2
    34   29   40       1
    35   30   31       1
    36   31   32      ar
    37   31   38      ar
    38   32   33      ar
    39   33   34       1
    40   33   35      ar
    41   35   36       1
    42   35   37      ar
    43   37   38      ar
    44   38   39       1
    45   39   40       1
    46   39   41       1
    47   41   42       1
    48   42   43       1
    49   42   44       1
    50   44   45       1
    51   44   46       1
    52   46   47       1
    53   46   48       1
    54   48   49       1
    55   49   50       1
    56   50   51      ar
    57   50   52      ar
    58   50   53       1
    59   48   84       1
    60    5   54       1
    61    5   55       1
    62    6   56       1
    63    8   57       1
    64    9   58       1
    65   10   59       1
    66   11   60       1
    67   12   61       1
    68   14   62       1
    69   18   63       1
    70   18   64       1
    71   20   65       1
    72   26   66       1
    73   32   67       1
    74   34   68       1
    75   34   69       1
    76   34   70       1
    77   36   71       1
    78   36   72       1
    79   36   73       1
    80   37   74       1
    81   41   75       1
    82   41   76       1
    83   42   77       1
    84   43   78       1
    85   44   79       1
    86   45   80       1
    87   46   81       1
    88   47   82       1
    89   48   83       1
@<TRIPOS>SUBSTRUCTURE
     1 FAD1490     1 GROUP             4 A     FAD     0 **** FAD A1490
