@<TRIPOS>MOLECULE
2po3_T4K_2_ligand
   83    86     1     0     0
SMALL
NO_CHARGES


@<TRIPOS>ATOM
     1 N1L         34.1910   -11.3810   -20.7910 N.pl3        1 T4K2500   0.0000
     2 C2L         34.5110   -12.2560   -19.8580 C.2          1 T4K2500   0.0000
     3 C2A         35.4820   -11.8520   -18.7660 C.3          1 T4K2500   0.0000
     4 C3L         33.9660   -13.5460   -19.8710 C.2          1 T4K2500   0.0000
     5 O3L         34.2900   -14.4630   -18.8990 O.3          1 T4K2500   0.0000
     6 C4L         33.0540   -13.8900   -20.9100 C.2          1 T4K2500   0.0000
     7 C4A         32.5000   -15.1860   -20.9460 C.2          1 T4K2500   0.0000
     8 C5L         32.7410   -12.9000   -21.8900 C.2          1 T4K2500   0.0000
     9 C6L         33.3350   -11.6470   -21.7640 C.2          1 T4K2500   0.0000
    10 C5B         31.7980   -13.1990   -23.0700 C.3          1 T4K2500   0.0000
    11 OP4         30.4950   -13.4270   -22.5790 O.3          1 T4K2500   0.0000
    12 PL          29.5630   -14.1250   -23.7000 P.3          1 T4K2500   0.0000
    13 OP1         29.8010   -15.6990   -23.7270 O.co2        1 T4K2500   0.0000
    14 OP2         28.0590   -13.8420   -23.2050 O.co2        1 T4K2500  -1.0000
    15 OP3         29.7790   -13.5180   -25.1930 O.co2        1 T4K2500  -1.0000
    16 C1G         32.5960   -20.1800   -20.5100 C.3          1 T4K2500   0.0000
    17 C2G         31.4840   -19.3480   -21.2240 C.3          1 T4K2500   0.0000
    18 O2G         31.2470   -19.8710   -22.5400 O.3          1 T4K2500   0.0000
    19 C3G         31.7890   -17.8220   -21.2920 C.3          1 T4K2500   0.0000
    20 O3G         30.5670   -17.1220   -21.5650 O.3          1 T4K2500   0.0000
    21 C4G         32.3820   -17.3610   -19.9460 C.3          1 T4K2500   0.0000
    22 N4A         32.8510   -16.0510   -19.9930 N.pl3        1 T4K2500   0.0000
    23 C5G         33.5790   -18.2530   -19.6680 C.3          1 T4K2500   0.0000
    24 C6G         34.4260   -17.6470   -18.5380 C.3          1 T4K2500   0.0000
    25 O5G         33.1060   -19.5520   -19.3220 O.3          1 T4K2500   0.0000
    26 P2          34.0540   -22.0530   -21.8880 P.3          1 T4K2500   0.0000
    27 O3P         35.0890   -22.0100   -23.1430 O.co2        1 T4K2500   0.0000
    28 O4P         34.7480   -22.8440   -20.6580 O.co2        1 T4K2500  -1.0000
    29 OPP         32.6780   -22.7970   -22.3700 O.3          1 T4K2500   0.0000
    30 P           32.5610   -24.2930   -21.7360 P.3          1 T4K2500   0.0000
    31 O1P         31.5360   -25.1660   -22.6360 O.co2        1 T4K2500   0.0000
    32 O2P         34.0080   -25.0210   -21.7230 O.co2        1 T4K2500  -1.0000
    33 O5          31.9740   -24.1990   -20.2330 O.3          1 T4K2500   0.0000
    34 C5          32.9260   -24.7900   -19.3480 C.3          1 T4K2500   0.0000
    35 C4          32.1990   -25.3630   -18.1330 C.3          1 T4K2500   0.0000
    36 O4          30.7780   -25.0030   -18.1570 O.3          1 T4K2500   0.0000
    37 C3          32.2830   -26.9170   -18.1410 C.3          1 T4K2500   0.0000
    38 O3          32.6590   -27.4260   -16.8400 O.3          1 T4K2500   0.0000
    39 C2          30.8560   -27.3480   -18.5680 C.3          1 T4K2500   0.0000
    40 C1          29.9790   -26.2010   -18.0670 C.3          1 T4K2500   0.0000
    41 N11         28.7340   -26.0610   -18.8640 N.pl3        1 T4K2500   0.0000
    42 C61         28.7500   -25.3370   -20.0320 C.2          1 T4K2500   0.0000
    43 C51         27.6120   -25.1870   -20.7480 C.2          1 T4K2500   0.0000
    44 C5A         27.6160   -24.4060   -22.0370 C.3          1 T4K2500   0.0000
    45 C21         27.5750   -26.6190   -18.4280 C.2          1 T4K2500   0.0000
    46 O21         27.5430   -27.2580   -17.3900 O.2          1 T4K2500   0.0000
    47 N31         26.4420   -26.4830   -19.1300 N.pl3        1 T4K2500   0.0000
    48 C41         26.4210   -25.7790   -20.2720 C.2          1 T4K2500   0.0000
    49 O41         25.3830   -25.6580   -20.8820 O.2          1 T4K2500   0.0000
    50 O1G         33.6680   -20.5480   -21.4080 O.3          1 T4K2500   0.0000
    51 H1L         34.6144   -10.4755   -20.7618 H            1 T4K2500   0.0000
    52 H2A1        35.6198   -12.6207   -18.1414 H            1 T4K2500   0.0000
    53 H2A2        36.3569   -11.5949   -19.1763 H            1 T4K2500   0.0000
    54 H2A3        35.1097   -11.0740   -18.2600 H            1 T4K2500   0.0000
    55 H3L         34.9242   -14.2131   -18.1673 H            1 T4K2500   0.0000
    56 H4A         31.8601   -15.4501   -21.6677 H            1 T4K2500   0.0000
    57 H6L         33.1092   -10.9311   -22.4247 H            1 T4K2500   0.0000
    58 H5B1        32.1187   -14.0118   -23.5564 H            1 T4K2500   0.0000
    59 H5B2        31.7876   -12.4188   -23.6954 H            1 T4K2500   0.0000
    60 H1G         32.1664   -21.0341   -20.2168 H            1 T4K2500   0.0000
    61 H2G         30.6404   -19.4622   -20.6994 H            1 T4K2500   0.0000
    62 H12         32.0900   -19.8207   -23.0755 H            1 T4K2500   0.0000
    63 H3G         32.4462   -17.6450   -22.0247 H            1 T4K2500   0.0000
    64 H14         30.6582   -16.6137   -22.4213 H            1 T4K2500   0.0000
    65 H4G         31.7029   -17.4584   -19.2184 H            1 T4K2500   0.0000
    66 H16         33.4804   -15.7441   -19.2790 H            1 T4K2500   0.0000
    67 H5G         34.1369   -18.3182   -20.4954 H            1 T4K2500   0.0000
    68 H6G1        35.2130   -18.2372   -18.3581 H            1 T4K2500   0.0000
    69 H6G2        34.7454   -16.7395   -18.8108 H            1 T4K2500   0.0000
    70 H6G3        33.8708   -17.5700   -17.7098 H            1 T4K2500   0.0000
    71 H21         33.5800   -24.0952   -19.0488 H            1 T4K2500   0.0000
    72 H22         33.4126   -25.5235   -19.8225 H            1 T4K2500   0.0000
    73 H23         32.6184   -25.0105   -17.2964 H            1 T4K2500   0.0000
    74 H24         32.9465   -27.2167   -18.8265 H            1 T4K2500   0.0000
    75 H25         32.3257   -26.8054   -16.1302 H            1 T4K2500   0.0000
    76 H26         30.5980   -28.2118   -18.1353 H            1 T4K2500   0.0000
    77 H27         30.7918   -27.4406   -19.5616 H            1 T4K2500   0.0000
    78 H28         29.7395   -26.3647   -17.1100 H            1 T4K2500   0.0000
    79 H29         29.6015   -24.9217   -20.3521 H            1 T4K2500   0.0000
    80 H5A1        26.6948   -24.4000   -22.4259 H            1 T4K2500   0.0000
    81 H5A2        27.9079   -23.4667   -21.8567 H            1 T4K2500   0.0000
    82 H5A3        28.2480   -24.8332   -22.6836 H            1 T4K2500   0.0000
    83 H33         25.6014   -26.9116   -18.7987 H            1 T4K2500   0.0000
@<TRIPOS>BOND
     1    1    2       1
     2    1    9       1
     3    2    3       1
     4    2    4       2
     5    4    5       1
     6    4    6       1
     7    6    7       2
     8    6    8       1
     9    7   22       1
    10    8    9       2
    11    8   10       1
    12   10   11       1
    13   11   12       1
    14   12   13      ar
    15   12   14      ar
    16   12   15      ar
    17   16   17       1
    18   16   25       1
    19   16   50       1
    20   17   18       1
    21   17   19       1
    22   19   20       1
    23   19   21       1
    24   21   22       1
    25   21   23       1
    26   23   24       1
    27   23   25       1
    28   26   27      ar
    29   26   28      ar
    30   26   29       1
    31   26   50       1
    32   29   30       1
    33   30   31      ar
    34   30   32      ar
    35   30   33       1
    36   33   34       1
    37   34   35       1
    38   35   36       1
    39   35   37       1
    40   36   40       1
    41   37   38       1
    42   37   39       1
    43   39   40       1
    44   40   41       1
    45   41   42       1
    46   41   45       1
    47   42   43       2
    48   43   44       1
    49   43   48       1
    50   45   46       2
    51   45   47       1
    52   47   48       1
    53   48   49       2
    54    1   51       1
    55    3   52       1
    56    3   53       1
    57    3   54       1
    58    5   55       1
    59    7   56       1
    60    9   57       1
    61   10   58       1
    62   10   59       1
    63   47   83       1
    64   44   82       1
    65   16   60       1
    66   17   61       1
    67   18   62       1
    68   19   63       1
    69   20   64       1
    70   21   65       1
    71   22   66       1
    72   23   67       1
    73   24   68       1
    74   24   69       1
    75   24   70       1
    76   44   81       1
    77   44   80       1
    78   34   71       1
    79   34   72       1
    80   35   73       1
    81   37   74       1
    82   38   75       1
    83   39   76       1
    84   39   77       1
    85   40   78       1
    86   42   79       1
@<TRIPOS>SUBSTRUCTURE
     1 T4K2500     1 GROUP             4 B     T4K     0 **** T4K B2500
