@<TRIPOS>MOLECULE
4itx_IN5_2_ligand
   38    38     1     0     0
SMALL
NO_CHARGES


@<TRIPOS>ATOM
     1 C1          -5.3140    49.4140    24.8500 C.ar         1 IN5401   0.0000
     2 C2          -6.1640    49.2580    22.5870 C.ar         1 IN5401   0.0000
     3 C3          -7.2650    48.5730    23.1210 C.ar         1 IN5401   0.0000
     4 O4          -7.7170    45.8910    28.1820 O.co2        1 IN5401   0.0000
     5 O5          -5.1000    45.1310    28.4050 O.co2        1 IN5401  -1.0000
     6 C7          -6.3600    48.5090    26.8010 C.3          1 IN5401   0.0000
     7 C8          -8.5520    47.5630    25.1450 C.3          1 IN5401   0.0000
     8 C9         -10.6060    46.3860    24.6620 C.3          1 IN5401   0.0000
     9 C10        -10.9040    46.4200    26.1680 C.3          1 IN5401   0.0000
    10 N1          -5.2210    49.6700    23.4880 N.ar         1 IN5401   1.0000
    11 C4          -7.3950    48.2770    24.5160 C.ar         1 IN5401   0.0000
    12 C5          -6.3820    48.7250    25.3690 C.ar         1 IN5401   0.0000
    13 O1          -8.2230    48.0780    22.2740 O.3          1 IN5401   0.0000
    14 C6          -5.9860    49.4720    21.1550 C.3          1 IN5401   0.0000
    15 O2          -5.7640    47.1900    27.0720 O.3          1 IN5401   0.0000
    16 N2          -9.5680    47.2950    24.2200 N.4          1 IN5401   1.0000
    17 P1          -6.1820    46.3000    28.3620 P.3          1 IN5401   0.0000
    18 O3          -6.0460    47.2090    29.5950 O.co2        1 IN5401  -1.0000
    19 P2         -12.0200    46.8540    23.5750 P.3          1 IN5401   0.0000
    20 O6         -12.9330    45.6200    23.4610 O.co2        1 IN5401   0.0000
    21 O7         -12.7410    48.1490    24.1930 O.co2        1 IN5401  -1.0000
    22 O8         -11.4410    47.1460    22.1550 O.co2        1 IN5401  -1.0000
    23 H1          -4.5919    49.7365    25.4620 H            1 IN5401   0.0000
    24 H2          -7.2931    48.5364    27.1595 H            1 IN5401   0.0000
    25 H3          -5.8131    49.2217    27.2402 H            1 IN5401   0.0000
    26 H4          -8.9241    48.1335    25.8772 H            1 IN5401   0.0000
    27 H5          -8.2280    46.6981    25.5284 H            1 IN5401   0.0000
    28 H6         -10.3260    45.4563    24.4227 H            1 IN5401   0.0000
    29 H7         -11.6289    45.7643    26.3792 H            1 IN5401   0.0000
    30 H8         -10.0776    46.1787    26.6768 H            1 IN5401   0.0000
    31 H9         -11.1995    47.3391    26.4287 H            1 IN5401   0.0000
    32 H10         -8.1323    48.2071    21.2865 H            1 IN5401   0.0000
    33 H11         -5.1391    49.9796    20.9966 H            1 IN5401   0.0000
    34 H12         -5.9371    48.5883    20.6894 H            1 IN5401   0.0000
    35 H13         -6.7598    49.9948    20.7974 H            1 IN5401   0.0000
    36 H14         -9.1434    46.9013    23.4047 H            1 IN5401   0.0000
    37 H15        -10.0028    48.1638    23.9829 H            1 IN5401   0.0000
    38 H16         -4.4287    50.1786    23.1509 H            1 IN5401   0.0000
@<TRIPOS>BOND
     1    1   10      ar
     2    1   12      ar
     3    2    3      ar
     4    2   10      ar
     5    2   14       1
     6    3   11      ar
     7    3   13       1
     8    4   17      ar
     9    5   17      ar
    10    6   12       1
    11    6   15       1
    12    7   11       1
    13    7   16       1
    14    8    9       1
    15    8   16       1
    16    8   19       1
    17   11   12      ar
    18   15   17       1
    19   17   18      ar
    20   19   20      ar
    21   19   21      ar
    22   19   22      ar
    23    1   23       1
    24   16   36       1
    25   16   37       1
    26    6   24       1
    27    6   25       1
    28    7   26       1
    29    7   27       1
    30    8   28       1
    31    9   29       1
    32    9   30       1
    33    9   31       1
    34   13   32       1
    35   14   33       1
    36   14   34       1
    37   14   35       1
    38   10   38       1
@<TRIPOS>SUBSTRUCTURE
     1 IN5401      1 GROUP             4 B     IN5     0 **** IN5 B 401
