@<TRIPOS>MOLECULE
2vxa_RBF_12_ligand
   47    49     1     0     0
SMALL
NO_CHARGES


@<TRIPOS>ATOM
     1 N1         -28.1700   -12.4000    17.8050 N.2          1 RBF200   0.0000
     2 C2         -28.7510   -13.2910    16.9830 C.2          1 RBF200   0.0000
     3 O2         -29.5400   -12.8310    16.1510 O.2          1 RBF200   0.0000
     4 N3         -28.5250   -14.6260    17.0300 N.pl3        1 RBF200   0.0000
     5 C4         -27.6600   -15.1450    17.9110 C.2          1 RBF200   0.0000
     6 O4         -27.4490   -16.3670    17.9590 O.2          1 RBF200   0.0000
     7 C4A        -26.9610   -14.2420    18.8430 C.2          1 RBF200   0.0000
     8 N5         -26.0790   -14.6860    19.7620 N.2          1 RBF200   0.0000
     9 C5A        -25.4660   -13.8460    20.6260 C.ar         1 RBF200   0.0000
    10 C6         -24.5790   -14.3700    21.5620 C.ar         1 RBF200   0.0000
    11 C7         -23.9290   -13.5020    22.4550 C.ar         1 RBF200   0.0000
    12 C7M        -22.9510   -14.0620    23.4560 C.3          1 RBF200   0.0000
    13 C8         -24.2070   -12.0240    22.3990 C.ar         1 RBF200   0.0000
    14 C8M        -23.5270   -11.0810    23.3470 C.3          1 RBF200   0.0000
    15 C9         -25.0980   -11.5090    21.4480 C.ar         1 RBF200   0.0000
    16 C9A        -25.7390   -12.3820    20.5660 C.ar         1 RBF200   0.0000
    17 N10        -26.6430   -11.9130    19.6130 N.pl3        1 RBF200   0.0000
    18 C10        -27.2830   -12.8110    18.7410 C.2          1 RBF200   0.0000
    19 C1'        -26.9480   -10.5040    19.4680 C.3          1 RBF200   0.0000
    20 C2'        -28.0190   -10.0690    20.4420 C.3          1 RBF200   0.0000
    21 O2'        -29.2800   -10.2040    19.7750 O.3          1 RBF200   0.0000
    22 C3'        -27.6220    -8.6390    20.7700 C.3          1 RBF200   0.0000
    23 O3'        -27.5990    -8.4080    22.1750 O.3          1 RBF200   0.0000
    24 C4'        -28.4640    -7.5790    20.0950 C.3          1 RBF200   0.0000
    25 O4'        -28.7800    -8.0380    18.7710 O.3          1 RBF200   0.0000
    26 C5'        -27.6510    -6.2740    20.0930 C.3          1 RBF200   0.0000
    27 O5'        -27.3460    -5.8880    21.4550 O.3          1 RBF200   0.0000
    28 H1         -29.0101   -15.2314    16.3990 H            1 RBF200   0.0000
    29 H2         -24.4062   -15.3543    21.5984 H            1 RBF200   0.0000
    30 H7M1       -22.5798   -13.3180    24.0115 H            1 RBF200   0.0000
    31 H7M2       -23.4188   -14.7185    24.0478 H            1 RBF200   0.0000
    32 H7M3       -22.2055   -14.5211    22.9728 H            1 RBF200   0.0000
    33 H8M1       -23.8318   -10.1464    23.1635 H            1 RBF200   0.0000
    34 H8M2       -23.7593   -11.3288    24.2876 H            1 RBF200   0.0000
    35 H8M3       -22.5366   -11.1392    23.2219 H            1 RBF200   0.0000
    36 H9         -25.2733   -10.5256    21.4012 H            1 RBF200   0.0000
    37 H1'1       -27.2676   -10.3345    18.5357 H            1 RBF200   0.0000
    38 H1'2       -26.1183    -9.9723    19.6378 H            1 RBF200   0.0000
    39 H2'        -27.9955   -10.6366    21.2650 H            1 RBF200   0.0000
    40 H13        -29.2268   -10.9480    19.1089 H            1 RBF200   0.0000
    41 H3'        -26.6854    -8.5165    20.4416 H            1 RBF200   0.0000
    42 H15        -26.9381    -9.0243    22.6034 H            1 RBF200   0.0000
    43 H4'        -29.3092    -7.4448    20.6123 H            1 RBF200   0.0000
    44 H17        -29.2882    -8.8973    18.8285 H            1 RBF200   0.0000
    45 H5'1       -28.1840    -5.5508    19.6538 H            1 RBF200   0.0000
    46 H5'2       -26.7991    -6.4137    19.5882 H            1 RBF200   0.0000
    47 H5'        -27.2730    -6.7064    22.0250 H            1 RBF200   0.0000
@<TRIPOS>BOND
     1    1    2       1
     2    1   18       2
     3    2    3       2
     4    2    4       1
     5    4    5       1
     6    5    6       2
     7    5    7       1
     8    7    8       2
     9    7   18       1
    10    8    9       1
    11    9   10      ar
    12    9   16      ar
    13   10   11      ar
    14   11   12       1
    15   11   13      ar
    16   13   14       1
    17   13   15      ar
    18   15   16      ar
    19   16   17       1
    20   17   18       1
    21   17   19       1
    22   19   20       1
    23   20   21       1
    24   20   22       1
    25   22   23       1
    26   22   24       1
    27   24   25       1
    28   24   26       1
    29   26   27       1
    30    4   28       1
    31   10   29       1
    32   12   30       1
    33   12   31       1
    34   12   32       1
    35   14   33       1
    36   14   34       1
    37   14   35       1
    38   15   36       1
    39   19   37       1
    40   19   38       1
    41   20   39       1
    42   21   40       1
    43   22   41       1
    44   23   42       1
    45   24   43       1
    46   25   44       1
    47   26   45       1
    48   26   46       1
    49   27   47       1
@<TRIPOS>SUBSTRUCTURE
     1 RBF200      1 GROUP             4 L     RBF     0 **** RBF L 200
