@<TRIPOS>MOLECULE
4h8n_NDP_2_ligand
   73    77     1     0     0
SMALL
NO_CHARGES


@<TRIPOS>ATOM
     1 PA          15.5000    41.3920    35.4170 P.3          1 NDP3001   0.0000
     2 O1A         15.6290    41.3940    33.9800 O.co2        1 NDP3001   0.0000
     3 O2A         14.1630    40.8840    35.9580 O.co2        1 NDP3001  -1.0000
     4 O5B         15.7120    42.9210    35.9360 O.3          1 NDP3001   0.0000
     5 C5B         15.5790    43.4370    37.2640 C.3          1 NDP3001   0.0000
     6 C4B         15.2980    44.9310    37.1200 C.3          1 NDP3001   0.0000
     7 O4B         14.1130    45.0530    36.3670 O.3          1 NDP3001   0.0000
     8 C3B         14.9660    45.5290    38.4810 C.3          1 NDP3001   0.0000
     9 O3B         15.8050    46.6400    38.5730 O.3          1 NDP3001   0.0000
    10 C2B         13.5090    45.9810    38.4480 C.3          1 NDP3001   0.0000
    11 O2B         13.3510    47.2610    39.0270 O.3          1 NDP3001   0.0000
    12 C1B         13.3280    46.0970    36.9480 C.3          1 NDP3001   0.0000
    13 N9A         11.9590    45.9980    36.4800 N.pl3        1 NDP3001   0.0000
    14 C8A         10.9780    45.1210    36.7980 C.2          1 NDP3001   0.0000
    15 N7A          9.9500    45.5010    36.0270 N.2          1 NDP3001   0.0000
    16 C5A         10.2730    46.5600    35.2540 C.ar         1 NDP3001   0.0000
    17 C6A          9.5680    47.2880    34.3440 C.ar         1 NDP3001   0.0000
    18 N6A          8.3220    46.9310    34.0980 N.pl3        1 NDP3001   0.0000
    19 N1A         10.1480    48.3520    33.6800 N.ar         1 NDP3001   0.0000
    20 C2A         11.4630    48.7080    33.9570 C.ar         1 NDP3001   0.0000
    21 N3A         12.1460    47.9540    34.8940 N.ar         1 NDP3001   0.0000
    22 C4A         11.5260    46.9110    35.5370 C.ar         1 NDP3001   0.0000
    23 O3          16.7730    40.4750    36.0100 O.3          1 NDP3001   0.0000
    24 PN          18.2450    40.8700    36.5570 P.3          1 NDP3001   0.0000
    25 O1N         17.9860    41.7330    37.6730 O.co2        1 NDP3001   0.0000
    26 O2N         19.2970    41.2160    35.5210 O.co2        1 NDP3001  -1.0000
    27 O5D         18.7150    39.4630    37.1800 O.3          1 NDP3001   0.0000
    28 C5D         17.7290    38.8170    37.9870 C.3          1 NDP3001   0.0000
    29 C4D         18.4520    37.7530    38.8660 C.3          1 NDP3001   0.0000
    30 O4D         19.0490    36.7570    38.0420 O.3          1 NDP3001   0.0000
    31 C3D         19.5320    38.3080    39.7870 C.3          1 NDP3001   0.0000
    32 O3D         18.9560    38.9140    40.9680 O.3          1 NDP3001   0.0000
    33 C2D         20.3020    37.0230    40.0680 C.3          1 NDP3001   0.0000
    34 O2D         19.5140    36.2580    41.0250 O.3          1 NDP3001   0.0000
    35 C1D         20.1930    36.2760    38.7280 C.3          1 NDP3001   0.0000
    36 N1N         21.3710    36.5950    37.8890 N.ar         1 NDP3001   1.0000
    37 C2N         22.2540    35.6000    37.7100 C.ar         1 NDP3001   0.0000
    38 C3N         23.3740    35.7990    36.9280 C.ar         1 NDP3001   0.0000
    39 C7N         24.3170    34.6700    36.7050 C.2          1 NDP3001   0.0000
    40 O7N         25.5770    35.0300    36.3320 O.2          1 NDP3001   0.0000
    41 N7N         24.0270    33.3640    36.8230 N.am         1 NDP3001   0.0000
    42 C4N         23.7040    37.1330    36.3040 C.ar         1 NDP3001   0.0000
    43 C5N         22.6280    38.1530    36.5430 C.ar         1 NDP3001   0.0000
    44 C6N         21.5170    37.8530    37.3600 C.ar         1 NDP3001   0.0000
    45 P2B         12.2780    47.4530    40.2530 P.3          1 NDP3001   0.0000
    46 O1X         12.2700    48.9370    40.6200 O.co2        1 NDP3001   0.0000
    47 O2X         10.9580    46.9660    39.7210 O.co2        1 NDP3001  -1.0000
    48 O3X         12.7500    46.6940    41.4130 O.co2        1 NDP3001  -1.0000
    49 H5B1        16.4247    43.2921    37.7776 H            1 NDP3001   0.0000
    50 H5B2        14.8211    42.9865    37.7358 H            1 NDP3001   0.0000
    51 H4B         16.0612    45.4085    36.6847 H            1 NDP3001   0.0000
    52 H3B         15.1336    44.8777    39.2211 H            1 NDP3001   0.0000
    53 H5          15.2527    47.4671    38.6766 H            1 NDP3001   0.0000
    54 H2B         12.8936    45.3043    38.8522 H            1 NDP3001   0.0000
    55 H1B         13.7011    46.9760    36.6513 H            1 NDP3001   0.0000
    56 H8A         11.0124    44.3670    37.4540 H            1 NDP3001   0.0000
    57 H6A1         7.7764    47.4441    33.4354 H            1 NDP3001   0.0000
    58 H6A2         7.9231    46.1473    34.5741 H            1 NDP3001   0.0000
    59 H2A         11.8990    49.4808    33.4958 H            1 NDP3001   0.0000
    60 H5D1        17.0507    38.3711    37.4029 H            1 NDP3001   0.0000
    61 H5D2        17.2750    39.4892    38.5718 H            1 NDP3001   0.0000
    62 H4D         17.7625    37.3064    39.4362 H            1 NDP3001   0.0000
    63 H3D         20.1078    38.9643    39.2994 H            1 NDP3001   0.0000
    64 H16         19.2165    39.8786    41.0085 H            1 NDP3001   0.0000
    65 H2D         21.2449    37.1792    40.3621 H            1 NDP3001   0.0000
    66 H18         19.6737    35.2811    40.8830 H            1 NDP3001   0.0000
    67 H1D         20.1246    35.2898    38.8789 H            1 NDP3001   0.0000
    68 H2N         22.1001    34.7124    38.1442 H            1 NDP3001   0.0000
    69 H7N1        24.7335    32.6774    36.6512 H            1 NDP3001   0.0000
    70 H7N2        23.1046    33.0781    37.0827 H            1 NDP3001   0.0000
    71 H4N         24.5423    37.3165    35.7907 H            1 NDP3001   0.0000
    72 H5N         22.6996    39.0555    36.1182 H            1 NDP3001   0.0000
    73 H6N         20.8350    38.5582    37.5538 H            1 NDP3001   0.0000
@<TRIPOS>BOND
     1    1    2      ar
     2    1    3      ar
     3    1    4       1
     4    1   23       1
     5    4    5       1
     6    5    6       1
     7    6    7       1
     8    6    8       1
     9    7   12       1
    10    8    9       1
    11    8   10       1
    12   10   11       1
    13   10   12       1
    14   11   45       1
    15   12   13       1
    16   13   14       1
    17   13   22       1
    18   14   15       2
    19   15   16       1
    20   16   17      ar
    21   16   22      ar
    22   17   18       1
    23   17   19      ar
    24   19   20      ar
    25   20   21      ar
    26   21   22      ar
    27   23   24       1
    28   24   25      ar
    29   24   26      ar
    30   24   27       1
    31   27   28       1
    32   28   29       1
    33   29   30       1
    34   29   31       1
    35   30   35       1
    36   31   32       1
    37   31   33       1
    38   33   34       1
    39   33   35       1
    40   35   36       1
    41   36   37      ar
    42   36   44      ar
    43   37   38      ar
    44   38   39       1
    45   38   42      ar
    46   39   40       2
    47   39   41      am
    48   42   43      ar
    49   43   44      ar
    50   45   46      ar
    51   45   47      ar
    52   45   48      ar
    53   43   72       1
    54    5   49       1
    55    5   50       1
    56    6   51       1
    57    8   52       1
    58    9   53       1
    59   10   54       1
    60   12   55       1
    61   14   56       1
    62   18   57       1
    63   18   58       1
    64   20   59       1
    65   44   73       1
    66   28   60       1
    67   28   61       1
    68   29   62       1
    69   31   63       1
    70   32   64       1
    71   33   65       1
    72   34   66       1
    73   35   67       1
    74   37   68       1
    75   41   69       1
    76   41   70       1
    77   42   71       1
@<TRIPOS>SUBSTRUCTURE
     1 NDP3001     1 GROUP             4 B     NDP     0 **** NDP B3001
