@<TRIPOS>MOLECULE
4fid_GDP_1_ligand
   40    42     1     0     0
SMALL
NO_CHARGES


@<TRIPOS>ATOM
     1 PB           9.0990    10.2920    60.3550 P.3          1 GDP401   0.0000
     2 O1B          8.8420    11.7690    60.5190 O.co2        1 GDP401   0.0000
     3 O2B          8.2250     9.5280    61.3220 O.co2        1 GDP401  -1.0000
     4 O3B          8.7390     9.9250    58.9370 O.co2        1 GDP401  -1.0000
     5 O3A         10.6500     9.8940    60.6530 O.3          1 GDP401   0.0000
     6 PA          11.8790    10.9590    60.7420 P.3          1 GDP401   0.0000
     7 O1A         12.3130    11.4250    59.3680 O.co2        1 GDP401   0.0000
     8 O2A         11.5200    12.1500    61.6130 O.co2        1 GDP401  -1.0000
     9 O5'         13.0590    10.1220    61.4700 O.3          1 GDP401   0.0000
    10 C5'         13.6260    10.5970    62.6950 C.3          1 GDP401   0.0000
    11 C4'         15.1120    10.2370    62.8410 C.3          1 GDP401   0.0000
    12 O4'         15.4990     9.1380    62.0040 O.3          1 GDP401   0.0000
    13 C3'         16.0370    11.4080    62.5060 C.3          1 GDP401   0.0000
    14 O3'         16.9020    11.6780    63.6280 O.3          1 GDP401   0.0000
    15 C2'         16.8220    10.9510    61.2840 C.3          1 GDP401   0.0000
    16 O2'         18.1550    11.4940    61.2770 O.3          1 GDP401   0.0000
    17 C1'         16.7660     9.4250    61.4030 C.3          1 GDP401   0.0000
    18 N9          16.9460     8.7260    60.0960 N.pl3        1 GDP401   0.0000
    19 C8          16.0910     8.6720    59.0510 C.2          1 GDP401   0.0000
    20 N7          16.6050     7.9310    58.0310 N.2          1 GDP401   0.0000
    21 C5          17.8160     7.4910    58.4200 C.2          1 GDP401   0.0000
    22 C6          18.9090     6.6680    57.8400 C.2          1 GDP401   0.0000
    23 O6          18.8150     6.1820    56.6980 O.2          1 GDP401   0.0000
    24 N1          20.0100     6.4600    58.5700 N.pl3        1 GDP401   0.0000
    25 C2          20.1460     6.9590    59.8150 C.2          1 GDP401   0.0000
    26 N2          21.2820     6.6940    60.4980 N.pl3        1 GDP401   0.0000
    27 N3          19.1930     7.7180    60.4160 N.2          1 GDP401   0.0000
    28 C4          18.0320     8.0120    59.7800 C.2          1 GDP401   0.0000
    29 H5'1        13.1225    10.1923    63.4584 H            1 GDP401   0.0000
    30 H5'2        13.5338    11.5923    62.7252 H            1 GDP401   0.0000
    31 H4'         15.2755     9.9750    63.7921 H            1 GDP401   0.0000
    32 H3'         15.4974    12.2202    62.2843 H            1 GDP401   0.0000
    33 H5          17.8557    11.5704    63.3471 H            1 GDP401   0.0000
    34 H2'         16.3422    11.2374    60.4547 H            1 GDP401   0.0000
    35 H7          18.1552    12.3709    60.7963 H            1 GDP401   0.0000
    36 H1'         17.4892     9.1271    62.0261 H            1 GDP401   0.0000
    37 H9          15.1965     9.1185    59.0296 H            1 GDP401   0.0000
    38 H10         20.7548     5.9180    58.1807 H            1 GDP401   0.0000
    39 H11         21.4048     7.0537    61.4230 H            1 GDP401   0.0000
    40 H12         21.9996     6.1383    60.0783 H            1 GDP401   0.0000
@<TRIPOS>BOND
     1    1    2      ar
     2    1    3      ar
     3    1    4      ar
     4    1    5       1
     5    5    6       1
     6    6    7      ar
     7    6    8      ar
     8    6    9       1
     9    9   10       1
    10   10   11       1
    11   11   12       1
    12   11   13       1
    13   12   17       1
    14   13   14       1
    15   13   15       1
    16   15   16       1
    17   15   17       1
    18   17   18       1
    19   18   19       1
    20   18   28       1
    21   19   20       2
    22   20   21       1
    23   21   22       1
    24   21   28       2
    25   22   23       2
    26   22   24       1
    27   24   25       1
    28   25   26       1
    29   25   27       2
    30   27   28       1
    31   26   40       1
    32   26   39       1
    33   24   38       1
    34   10   29       1
    35   10   30       1
    36   11   31       1
    37   13   32       1
    38   14   33       1
    39   15   34       1
    40   16   35       1
    41   17   36       1
    42   19   37       1
@<TRIPOS>SUBSTRUCTURE
     1 GDP401      1 GROUP             4 A     GDP     0 **** GDP A 401
