@<TRIPOS>MOLECULE
2jg3_BA2_1_ligand
   65    67     1     0     0
SMALL
NO_CHARGES


@<TRIPOS>ATOM
     1 C17         45.1120     5.8430    66.2100 C.3          1 BA21416   0.0000
     2 C16         44.0670     5.3350    67.2070 C.3          1 BA21416   0.0000
     3 C15         44.5450     4.0670    67.9020 C.3          1 BA21416   0.0000
     4 C14         43.6730     3.6990    69.0870 C.3          1 BA21416   0.0000
     5 N13         44.1910     4.3160    70.3040 N.4          1 BA21416   1.0000
     6 C8          44.3240     3.5270    71.5030 C.3          1 BA21416   0.0000
     7 N9          45.0590     3.9210    72.6940 N.4          1 BA21416   1.0000
     8 C4          45.4930     2.7770    73.4630 C.3          1 BA21416   0.0000
     9 C5          45.2500     1.6020    72.5600 C.2          1 BA21416   0.0000
    10 N7          44.4720     2.0960    71.4430 N.2          1 BA21416   0.0000
    11 C6          45.5960     0.1850    73.0240 C.3          1 BA21416   0.0000
    12 N6          44.6200    -0.8380    72.8020 N.4          1 BA21416   1.0000
    13 N3          46.3320     2.6820    74.6480 N.4          1 BA21416   1.0000
    14 C2          46.6740     1.3590    75.1600 C.3          1 BA21416   0.0000
    15 N1          46.2720     0.2140    74.3310 N.4          1 BA21416   1.0000
    16 C1'         45.2290     5.2760    73.1880 C.3          1 BA21416   0.0000
    17 C2'         46.0840     6.1480    72.2490 C.3          1 BA21416   0.0000
    18 O2'         47.4680     5.8510    72.0620 O.3          1 BA21416   0.0000
    19 C3'         45.7280     7.5640    72.6300 C.3          1 BA21416   0.0000
    20 O3'         46.8240     8.0270    73.3990 O.3          1 BA21416   0.0000
    21 C4'         44.5370     7.4650    73.5710 C.3          1 BA21416   0.0000
    22 O4'         44.1970     6.0740    73.7710 O.3          1 BA21416   0.0000
    23 C5'         43.4260     8.3730    73.0610 C.3          1 BA21416   0.0000
    24 N10         42.1220     8.1650    73.6500 N.4          1 BA21416   1.0000
    25 C11         41.2750     9.3500    73.7910 C.3          1 BA21416   0.0000
    26 C12         41.2350     9.9240    75.2030 C.3          1 BA21416   0.0000
    27 H1          44.7748     6.6743    65.7682 H            1 BA21416   0.0000
    28 H2          45.9638     6.0446    66.6936 H            1 BA21416   0.0000
    29 H3          45.2800     5.1419    65.5170 H            1 BA21416   0.0000
    30 H4          43.2170     5.1391    66.7181 H            1 BA21416   0.0000
    31 H5          43.9007     6.0417    67.8947 H            1 BA21416   0.0000
    32 H6          45.4813     4.2093    68.2231 H            1 BA21416   0.0000
    33 H7          44.5290     3.3139    67.2443 H            1 BA21416   0.0000
    34 H8          43.6673     2.7051    69.1970 H            1 BA21416   0.0000
    35 H9          42.7406     4.0217    68.9240 H            1 BA21416   0.0000
    36 H10         43.5826     5.0784    70.5244 H            1 BA21416   0.0000
    37 H11         43.3887     3.5874    71.8518 H            1 BA21416   0.0000
    38 H12         44.6318     2.6793    73.9617 H            1 BA21416   0.0000
    39 H13         46.3334    -0.0761    72.4011 H            1 BA21416   0.0000
    40 H14         44.9664    -1.7099    73.1481 H            1 BA21416   0.0000
    41 H15         43.7745    -0.6015    73.2807 H            1 BA21416   0.0000
    42 H16         45.8599     3.1690    75.3828 H            1 BA21416   0.0000
    43 H17         46.2369     1.2561    76.0535 H            1 BA21416   0.0000
    44 H18         47.6674     1.3222    75.2686 H            1 BA21416   0.0000
    45 H19         47.1237    -0.2869    74.1767 H            1 BA21416   0.0000
    46 H1'         45.8467     5.1382    73.9623 H            1 BA21416   0.0000
    47 H2'         45.6750     6.0203    71.3454 H            1 BA21416   0.0000
    48 H22         47.8342     5.4319    72.8928 H            1 BA21416   0.0000
    49 H3'         45.5438     8.1420    71.8350 H            1 BA21416   0.0000
    50 H24         46.9347     7.4458    74.2052 H            1 BA21416   0.0000
    51 H4'         44.8300     7.8267    74.4560 H            1 BA21416   0.0000
    52 H5'1        43.3430     8.2316    72.0745 H            1 BA21416   0.0000
    53 H5'2        43.6963     9.3189    73.2406 H            1 BA21416   0.0000
    54 H28         42.2583     7.7783    74.5621 H            1 BA21416   0.0000
    55 H29         40.3429     9.1028    73.5263 H            1 BA21416   0.0000
    56 H30         41.6201    10.0575    73.1743 H            1 BA21416   0.0000
    57 H31         40.6393    10.7270    75.2196 H            1 BA21416   0.0000
    58 H32         40.8811     9.2333    75.8337 H            1 BA21416   0.0000
    59 H33         42.1583    10.1881    75.4817 H            1 BA21416   0.0000
    60 H34         45.1012     4.6682    70.0860 H            1 BA21416   0.0000
    61 H35         45.9234     3.9570    72.1924 H            1 BA21416   0.0000
    62 H36         44.4372    -0.9173    71.8220 H            1 BA21416   0.0000
    63 H37         47.1917     3.1477    74.4381 H            1 BA21416   0.0000
    64 H38         45.6738    -0.3213    74.9273 H            1 BA21416   0.0000
    65 H39         41.6316     7.5068    73.0787 H            1 BA21416   0.0000
@<TRIPOS>BOND
     1    1    2       1
     2    2    3       1
     3    3    4       1
     4    4    5       1
     5    5    6       1
     6    6    7       1
     7    6   10       1
     8    7    8       1
     9    7   16       1
    10    8    9       1
    11    8   13       1
    12    9   10       2
    13    9   11       1
    14   11   12       1
    15   11   15       1
    16   13   14       1
    17   14   15       1
    18   16   17       1
    19   16   22       1
    20   17   18       1
    21   17   19       1
    22   19   20       1
    23   19   21       1
    24   21   22       1
    25   21   23       1
    26   23   24       1
    27   24   25       1
    28   25   26       1
    29    1   27       1
    30    1   28       1
    31    1   29       1
    32    2   30       1
    33    2   31       1
    34    3   32       1
    35    3   33       1
    36    4   34       1
    37    4   35       1
    38    5   36       1
    39    6   37       1
    40    8   38       1
    41   11   39       1
    42   12   40       1
    43   12   41       1
    44   13   42       1
    45   14   43       1
    46   14   44       1
    47   15   45       1
    48   16   46       1
    49   17   47       1
    50   18   48       1
    51   19   49       1
    52   20   50       1
    53   21   51       1
    54   23   52       1
    55   23   53       1
    56   24   54       1
    57   25   55       1
    58   25   56       1
    59   26   57       1
    60   26   58       1
    61   26   59       1
    62    5   60       1
    63    7   61       1
    64   12   62       1
    65   13   63       1
    66   15   64       1
    67   24   65       1
@<TRIPOS>SUBSTRUCTURE
     1 BA21416     1 GROUP             4 D     BA2     0 **** BA2 D1416
