@<TRIPOS>MOLECULE
1kgj_FL8_1_ligand
   32    34     1     0     0
SMALL
NO_CHARGES


@<TRIPOS>ATOM
     1 BR3         42.0240    86.3210    42.2340 Br           1 FL8328   0.0000
     2 BR5         37.3810    89.3440    42.2800 Br           1 FL8328   0.0000
     3 O1          43.2830    91.5840    41.4450 O.2          1 FL8328   0.0000
     4 C2          42.2670    91.7310    42.3840 C.2          1 FL8328   0.0000
     5 C3          42.1780    92.8580    43.1380 C.2          1 FL8328   0.0000
     6 C4          43.1460    93.9500    43.0120 C.2          1 FL8328   0.0000
     7 C4A         44.2090    93.7670    42.0150 C.ar         1 FL8328   0.0000
     8 C5          45.2000    94.7480    41.7920 C.ar         1 FL8328   0.0000
     9 C6          46.1930    94.5220    40.8280 C.ar         1 FL8328   0.0000
    10 C7          46.1820    93.3280    40.1010 C.ar         1 FL8328   0.0000
    11 C8          45.2050    92.3620    40.3190 C.ar         1 FL8328   0.0000
    12 C8A         44.2290    92.5890    41.2730 C.ar         1 FL8328   0.0000
    13 C1'         41.4020    90.4550    42.3380 C.ar         1 FL8328   0.0000
    14 C2'         42.0140    89.1870    42.3100 C.ar         1 FL8328   0.0000
    15 C3'         41.2320    88.0300    42.2670 C.ar         1 FL8328   0.0000
    16 C4'         39.8480    88.0490    42.2510 C.ar         1 FL8328   0.0000
    17 C5'         39.2650    89.3110    42.2840 C.ar         1 FL8328   0.0000
    18 C6'         40.0020    90.5020    42.3260 C.ar         1 FL8328   0.0000
    19 O4'         39.1060    86.8880    42.2080 O.3          1 FL8328   0.0000
    20 C3B         41.1000    93.1110    44.1340 C.3          1 FL8328   0.0000
    21 O4          43.0970    94.9860    43.6940 O.2          1 FL8328   0.0000
    22 O6          47.1690    95.4660    40.6000 O.3          1 FL8328   0.0000
    23 H1          45.1937    95.5984    42.3181 H            1 FL8328   0.0000
    24 H2          46.8887    93.1655    39.4124 H            1 FL8328   0.0000
    25 H3          45.2081    91.5124    39.7917 H            1 FL8328   0.0000
    26 H2'         43.0113    89.1145    42.3209 H            1 FL8328   0.0000
    27 H6'         39.5298    91.3832    42.3474 H            1 FL8328   0.0000
    28 H4'         39.5667    86.0007    42.1874 H            1 FL8328   0.0000
    29 H3B1        41.2447    94.0029    44.5625 H            1 FL8328   0.0000
    30 H3B2        40.2122    93.1025    43.6738 H            1 FL8328   0.0000
    31 H3B3        41.1192    92.3976    44.8344 H            1 FL8328   0.0000
    32 H10         47.8746    95.2994    39.9113 H            1 FL8328   0.0000
@<TRIPOS>BOND
     1    1   15       1
     2    2   17       1
     3    3    4       1
     4    3   12       1
     5    4    5       2
     6    4   13       1
     7    5    6       1
     8    5   20       1
     9    6    7       1
    10    6   21       2
    11    7    8      ar
    12    7   12      ar
    13    8    9      ar
    14    9   10      ar
    15    9   22       1
    16   10   11      ar
    17   11   12      ar
    18   13   14      ar
    19   13   18      ar
    20   14   15      ar
    21   15   16      ar
    22   16   17      ar
    23   16   19       1
    24   17   18      ar
    25    8   23       1
    26   10   24       1
    27   11   25       1
    28   14   26       1
    29   18   27       1
    30   19   28       1
    31   20   29       1
    32   20   30       1
    33   20   31       1
    34   22   32       1
@<TRIPOS>SUBSTRUCTURE
     1 FL8328      1 GROUP             4 B     FL8     0 **** FL8 B 328
