@<TRIPOS>MOLECULE
2h8x_FMN_1_ligand
   50    52     1     0     0
SMALL
NO_CHARGES


@<TRIPOS>ATOM
     1 N1          19.2800    23.7470    59.2140 N.2          1 FMN1401   0.0000
     2 C2          19.4710    22.9870    58.0860 C.2          1 FMN1401   0.0000
     3 O2          19.7750    21.9310    58.1330 O.2          1 FMN1401   0.0000
     4 N3          19.2550    23.6580    56.7810 N.pl3        1 FMN1401   0.0000
     5 C4          18.8600    25.0250    56.6130 C.2          1 FMN1401   0.0000
     6 O4          18.7060    25.5400    55.4940 O.2          1 FMN1401   0.0000
     7 C4A         18.6530    25.8270    57.8150 C.2          1 FMN1401   0.0000
     8 N5          18.2850    27.1540    57.7630 N.2          1 FMN1401   0.0000
     9 C5A         18.1120    27.9410    58.9270 C.ar         1 FMN1401   0.0000
    10 C6          17.7380    29.3950    58.7080 C.ar         1 FMN1401   0.0000
    11 C7          17.5890    30.2190    59.8710 C.ar         1 FMN1401   0.0000
    12 C7M         17.2610    31.5460    59.5230 C.3          1 FMN1401   0.0000
    13 C8          17.7930    29.6780    61.3800 C.ar         1 FMN1401   0.0000
    14 C8M         17.6780    30.3910    62.5800 C.3          1 FMN1401   0.0000
    15 C9          18.1310    28.3280    61.4870 C.ar         1 FMN1401   0.0000
    16 C9A         18.3280    27.3690    60.3250 C.ar         1 FMN1401   0.0000
    17 N10         18.7270    25.8660    60.3300 N.pl3        1 FMN1401   0.0000
    18 C10         18.9090    25.0560    59.1480 C.2          1 FMN1401   0.0000
    19 C1'         18.9450    25.3290    61.6850 C.3          1 FMN1401   0.0000
    20 C2'         20.5260    25.8610    61.9550 C.3          1 FMN1401   0.0000
    21 O2'         21.4820    25.2750    61.0250 O.3          1 FMN1401   0.0000
    22 C3'         21.0780    25.5160    63.3430 C.3          1 FMN1401   0.0000
    23 O3'         21.1790    24.0630    63.5220 O.3          1 FMN1401   0.0000
    24 C4'         20.1260    26.1380    64.4040 C.3          1 FMN1401   0.0000
    25 O4'         20.0060    27.5730    64.2160 O.3          1 FMN1401   0.0000
    26 C5'         20.6010    25.8930    65.8190 C.3          1 FMN1401   0.0000
    27 O5'         21.9250    26.5910    66.0850 O.3          1 FMN1401   0.0000
    28 P           22.0280    28.0270    66.7680 P.3          1 FMN1401   0.0000
    29 O1P         21.3230    29.0400    65.9760 O.co2        1 FMN1401   0.0000
    30 O2P         21.4670    27.8980    68.1840 O.co2        1 FMN1401  -1.0000
    31 O3P         23.5290    28.2820    66.8100 O.co2        1 FMN1401  -1.0000
    32 H1          19.3961    23.1139    55.9539 H            1 FMN1401   0.0000
    33 H2          17.6009    29.7637    57.7886 H            1 FMN1401   0.0000
    34 H7M1        17.1641    32.0942    60.3537 H            1 FMN1401   0.0000
    35 H7M2        17.9871    31.9303    58.9528 H            1 FMN1401   0.0000
    36 H7M3        16.3992    31.5543    59.0158 H            1 FMN1401   0.0000
    37 H8M1        17.8633    29.7801    63.3498 H            1 FMN1401   0.0000
    38 H8M2        18.3369    31.1432    62.5853 H            1 FMN1401   0.0000
    39 H8M3        16.7517    30.7588    62.6618 H            1 FMN1401   0.0000
    40 H9          18.2542    27.9599    62.4086 H            1 FMN1401   0.0000
    41 H1'1        18.8800    24.3313    61.7044 H            1 FMN1401   0.0000
    42 H1'2        18.3038    25.7178    62.3466 H            1 FMN1401   0.0000
    43 H2'         20.5475    26.8547    61.8451 H            1 FMN1401   0.0000
    44 H13         21.5611    25.8583    60.2166 H            1 FMN1401   0.0000
    45 H3'         21.9869    25.9210    63.4427 H            1 FMN1401   0.0000
    46 H15         20.6114    23.7822    64.2959 H            1 FMN1401   0.0000
    47 H4'         19.2205    25.7272    64.2976 H            1 FMN1401   0.0000
    48 H17         20.7112    28.0393    64.7501 H            1 FMN1401   0.0000
    49 H5'1        20.7174    24.9096    65.9580 H            1 FMN1401   0.0000
    50 H5'2        19.9150    26.2411    66.4579 H            1 FMN1401   0.0000
@<TRIPOS>BOND
     1    1    2       1
     2    1   18       2
     3    2    3       2
     4    2    4       1
     5    4    5       1
     6    5    6       2
     7    5    7       1
     8    7    8       2
     9    7   18       1
    10    8    9       1
    11    9   10      ar
    12    9   16      ar
    13   10   11      ar
    14   11   12       1
    15   11   13      ar
    16   13   14       1
    17   13   15      ar
    18   15   16      ar
    19   16   17       1
    20   17   18       1
    21   17   19       1
    22   19   20       1
    23   20   21       1
    24   20   22       1
    25   22   23       1
    26   22   24       1
    27   24   25       1
    28   24   26       1
    29   26   27       1
    30   27   28       1
    31   28   29      ar
    32   28   30      ar
    33   28   31      ar
    34    4   32       1
    35   10   33       1
    36   12   34       1
    37   12   35       1
    38   12   36       1
    39   14   37       1
    40   14   38       1
    41   14   39       1
    42   15   40       1
    43   19   41       1
    44   19   42       1
    45   20   43       1
    46   21   44       1
    47   22   45       1
    48   23   46       1
    49   24   47       1
    50   25   48       1
    51   26   49       1
    52   26   50       1
@<TRIPOS>SUBSTRUCTURE
     1 FMN1401     1 GROUP             4 A     FMN     0 **** FMN A1401
