@<TRIPOS>MOLECULE
2yvp_RBY_1_ligand
   57    60     1     0     0
SMALL
NO_CHARGES


@<TRIPOS>ATOM
     1 PA          11.4350    31.5540    62.0780 P.3          1 RBY186   0.0000
     2 O5'         11.6470    32.9010    61.1410 O.3          1 RBY186   0.0000
     3 C5'         11.1640    33.6980    60.1090 C.3          1 RBY186   0.0000
     4 C4'         12.5030    34.5870    60.2320 C.3          1 RBY186   0.0000
     5 O4'         13.1640    34.9420    61.5460 O.3          1 RBY186   0.0000
     6 C3'         13.7510    35.0120    59.3140 C.3          1 RBY186   0.0000
     7 O3'         13.4750    35.4930    58.1320 O.3          1 RBY186   0.0000
     8 C2'         14.8430    35.8930    60.1730 C.3          1 RBY186   0.0000
     9 O2'         15.4630    36.9820    59.5720 O.3          1 RBY186   0.0000
    10 C1'         14.0700    36.2570    61.4370 C.3          1 RBY186   0.0000
    11 N9          14.9250    36.2940    62.5150 N.pl3        1 RBY186   0.0000
    12 C8          15.1210    35.1500    63.2880 C.2          1 RBY186   0.0000
    13 N7          15.9850    35.4140    64.2170 N.2          1 RBY186   0.0000
    14 C5          16.3700    36.7190    64.0970 C.ar         1 RBY186   0.0000
    15 C6          17.2780    37.5670    64.8070 C.ar         1 RBY186   0.0000
    16 N6          18.0080    37.1220    65.8470 N.pl3        1 RBY186   0.0000
    17 N1          17.4310    38.8250    64.4430 N.ar         1 RBY186   0.0000
    18 C2          16.7730    39.3790    63.4190 C.ar         1 RBY186   0.0000
    19 N3          15.9090    38.6650    62.6830 N.ar         1 RBY186   0.0000
    20 C4          15.6860    37.3200    63.0000 C.ar         1 RBY186   0.0000
    21 CX          12.6740    31.5630    63.0090 C.3          1 RBY186   0.0000
    22 PB          13.8670    30.2670    63.5360 P.3          1 RBY186   0.0000
    23 O1B         14.7500    31.4980    62.7540 O.co2        1 RBY186   0.0000
    24 OR5         14.2040    30.2920    64.9210 O.3          1 RBY186   0.0000
    25 CR5         13.8010    29.6180    66.0810 C.3          1 RBY186   0.0000
    26 CR4         14.5890    30.2210    67.0900 C.2          1 RBY186   0.0000
    27 OR4         15.7610    30.5380    67.7030 O.3          1 RBY186   0.0000
    28 CR3         13.5170    31.1200    67.3990 C.2          1 RBY186   0.0000
    29 OR3         12.2920    31.3800    66.9270 O.3          1 RBY186   0.0000
    30 CR2         13.9480    32.0300    68.4120 C.3          1 RBY186   0.0000
    31 OR2         13.0460    32.2310    69.5470 O.3          1 RBY186   0.0000
    32 CR1         15.4060    31.5690    68.6830 C.3          1 RBY186   0.0000
    33 OR1         16.2690    32.6930    68.4710 O.3          1 RBY186   0.0000
    34 O2A         10.2270    31.7100    63.0940 O.co2        1 RBY186   0.0000
    35 O2B         14.0050    28.8150    62.7590 O.co2        1 RBY186  -1.0000
    36 O1A         11.3360    30.2340    61.1450 O.co2        1 RBY186  -1.0000
    37 H5'1        10.3198    34.1887    60.3250 H            1 RBY186   0.0000
    38 H5'2        11.0600    33.2248    59.2342 H            1 RBY186   0.0000
    39 H4'         12.0296    35.4628    60.1384 H            1 RBY186   0.0000
    40 H3'         14.2229    34.1507    59.1255 H            1 RBY186   0.0000
    41 H5          13.3739    36.4861    58.1915 H            1 RBY186   0.0000
    42 H2'         15.5690    35.2633    60.4494 H            1 RBY186   0.0000
    43 H7          16.0932    37.4072    60.2217 H            1 RBY186   0.0000
    44 H1'         13.5319    37.0940    61.3374 H            1 RBY186   0.0000
    45 H9          14.6685    34.2693    63.1482 H            1 RBY186   0.0000
    46 H10         18.6332    37.7422    66.3208 H            1 RBY186   0.0000
    47 H11         17.9250    36.1713    66.1457 H            1 RBY186   0.0000
    48 H12         16.9279    40.3420    63.1985 H            1 RBY186   0.0000
    49 HX1         12.3063    31.9010    63.8754 H            1 RBY186   0.0000
    50 HX2         13.2614    32.2619    62.6009 H            1 RBY186   0.0000
    51 HR51        13.9925    28.6389    66.0126 H            1 RBY186   0.0000
    52 HR52        12.8261    29.7555    66.2562 H            1 RBY186   0.0000
    53 HR3         11.7337    32.0930    67.3511 H            1 RBY186   0.0000
    54 HR2         14.0233    32.9206    67.9634 H            1 RBY186   0.0000
    55 H19         13.4535    32.8845    70.1849 H            1 RBY186   0.0000
    56 HR1         15.5004    31.2200    69.6153 H            1 RBY186   0.0000
    57 H21         16.0468    33.4126    69.1288 H            1 RBY186   0.0000
@<TRIPOS>BOND
     1    1    2       1
     2    1   21       1
     3    1   34      ar
     4    1   36      ar
     5    2    3       1
     6    3    4       1
     7    4    5       1
     8    4    6       1
     9    5   10       1
    10    6    7       1
    11    6    8       1
    12    8    9       1
    13    8   10       1
    14   10   11       1
    15   11   12       1
    16   11   20       1
    17   12   13       2
    18   13   14       1
    19   14   15      ar
    20   14   20      ar
    21   15   16       1
    22   15   17      ar
    23   17   18      ar
    24   18   19      ar
    25   19   20      ar
    26   21   22       1
    27   22   23      ar
    28   22   24       1
    29   22   35      ar
    30   24   25       1
    31   25   26       1
    32   26   27       1
    33   26   28       2
    34   27   32       1
    35   28   29       1
    36   28   30       1
    37   30   31       1
    38   30   32       1
    39   32   33       1
    40    3   37       1
    41    3   38       1
    42    4   39       1
    43    6   40       1
    44    7   41       1
    45    8   42       1
    46    9   43       1
    47   10   44       1
    48   12   45       1
    49   16   46       1
    50   16   47       1
    51   18   48       1
    52   21   49       1
    53   21   50       1
    54   33   57       1
    55   25   51       1
    56   25   52       1
    57   29   53       1
    58   30   54       1
    59   31   55       1
    60   32   56       1
@<TRIPOS>SUBSTRUCTURE
     1 RBY186      1 GROUP             4 A     RBY     0 **** RBY A 186
