@<TRIPOS>MOLECULE
2vdb_NPS_1_ligand
   30    31     1     0     0
SMALL
NO_CHARGES


@<TRIPOS>ATOM
     1 C1          15.2910    -5.2140    27.9360 C.ar         1 NPS1591   0.0000
     2 O2          16.0220    -6.3350    27.7880 O.3          1 NPS1591   0.0000
     3 C2          15.5610    -4.0570    27.2550 C.ar         1 NPS1591   0.0000
     4 C14         10.8420    -0.9840    29.7830 C.3          1 NPS1591   0.0000
     5 C3          14.7710    -2.9430    27.4470 C.ar         1 NPS1591   0.0000
     6 C4          13.7020    -2.9750    28.3200 C.ar         1 NPS1591   0.0000
     7 C5          13.4420    -4.2240    29.0230 C.ar         1 NPS1591   0.0000
     8 C6          14.2460    -5.2920    28.8090 C.ar         1 NPS1591   0.0000
     9 C7          12.8630    -1.9050    28.5630 C.ar         1 NPS1591   0.0000
    10 C8          11.8230    -2.0480    29.4710 C.ar         1 NPS1591   0.0000
    11 C10         10.2450    -0.4410    28.5070 C.3          1 NPS1591   0.0000
    12 C13         12.4110    -4.3300    29.8980 C.ar         1 NPS1591   0.0000
    13 C11         11.6110    -3.2440    30.1000 C.ar         1 NPS1591   0.0000
    14 C12         17.0470    -6.3920    26.8530 C.3          1 NPS1591   0.0000
    15 O           11.5310     1.2210    30.1270 O.co2        1 NPS1591   0.0000
    16 OXT         11.1800     0.0260    31.8540 O.co2        1 NPS1591  -1.0000
    17 C15         11.2250     0.1560    30.6460 C.2          1 NPS1591   0.0000
    18 H1          16.3312    -4.0199    26.6183 H            1 NPS1591   0.0000
    19 H2          10.0906    -1.4414    30.2586 H            1 NPS1591   0.0000
    20 H3          14.9751    -2.1011    26.9474 H            1 NPS1591   0.0000
    21 H4          14.0718    -6.1476    29.2964 H            1 NPS1591   0.0000
    22 H5          13.0035    -1.0356    28.0893 H            1 NPS1591   0.0000
    23 H6           9.5841     0.2765    28.7271 H            1 NPS1591   0.0000
    24 H7          10.9714    -0.0608    27.9345 H            1 NPS1591   0.0000
    25 H8           9.7840    -1.1790    28.0142 H            1 NPS1591   0.0000
    26 H9          12.2410    -5.1867    30.3849 H            1 NPS1591   0.0000
    27 H10         10.8402    -3.3252    30.7319 H            1 NPS1591   0.0000
    28 H11         17.4762    -7.2947    26.8835 H            1 NPS1591   0.0000
    29 H12         16.6740    -6.2310    25.9392 H            1 NPS1591   0.0000
    30 H13         17.7290    -5.6914    27.0629 H            1 NPS1591   0.0000
@<TRIPOS>BOND
     1    1    2       1
     2    1    3      ar
     3    1    8      ar
     4    2   14       1
     5    3    5      ar
     6    4   10       1
     7    4   11       1
     8    4   17       1
     9    5    6      ar
    10    6    7      ar
    11    6    9      ar
    12    7    8      ar
    13    7   12      ar
    14    9   10      ar
    15   10   13      ar
    16   12   13      ar
    17   15   17      ar
    18   16   17      ar
    19    3   18       1
    20    4   19       1
    21    5   20       1
    22    8   21       1
    23    9   22       1
    24   11   23       1
    25   11   24       1
    26   11   25       1
    27   12   26       1
    28   13   27       1
    29   14   28       1
    30   14   29       1
    31   14   30       1
@<TRIPOS>SUBSTRUCTURE
     1 NPS1591     1 GROUP             4 A     NPS     0 **** NPS A1591
