@<TRIPOS>MOLECULE
1siq_FAD_1_ligand
   84    89     1     0     0
SMALL
NO_CHARGES


@<TRIPOS>ATOM
     1 PA         -15.1840    55.5400   -39.7050 P.3          1 FAD399   0.0000
     2 O1A        -15.9900    54.3450   -39.3960 O.co2        1 FAD399   0.0000
     3 O2A        -14.9610    55.8030   -40.9890 O.co2        1 FAD399  -1.0000
     4 O5B        -16.1950    56.5230   -39.0800 O.3          1 FAD399   0.0000
     5 C5B        -16.5740    56.4990   -37.6540 C.3          1 FAD399   0.0000
     6 C4B        -18.0230    55.9560   -37.4070 C.3          1 FAD399   0.0000
     7 O4B        -18.6870    55.5160   -38.6600 O.3          1 FAD399   0.0000
     8 C3B        -18.0550    54.7440   -36.4670 C.3          1 FAD399   0.0000
     9 O3B        -18.8720    54.8640   -35.3640 O.3          1 FAD399   0.0000
    10 C2B        -18.3680    53.6100   -37.4060 C.3          1 FAD399   0.0000
    11 O2B        -18.8770    52.4770   -36.7750 O.3          1 FAD399   0.0000
    12 C1B        -19.3940    54.2600   -38.3000 C.3          1 FAD399   0.0000
    13 N9A        -19.6160    53.5740   -39.5740 N.pl3        1 FAD399   0.0000
    14 C8A        -18.7000    53.4120   -40.6060 C.2          1 FAD399   0.0000
    15 N7A        -19.1970    52.7330   -41.6350 N.2          1 FAD399   0.0000
    16 C5A        -20.4860    52.4330   -41.2780 C.ar         1 FAD399   0.0000
    17 C6A        -21.5470    51.6960   -41.9820 C.ar         1 FAD399   0.0000
    18 N6A        -21.4010    51.1570   -43.1790 N.pl3        1 FAD399   0.0000
    19 N1A        -22.7470    51.5940   -41.2880 N.ar         1 FAD399   0.0000
    20 C2A        -22.9320    52.1370   -40.0380 C.ar         1 FAD399   0.0000
    21 N3A        -22.0070    52.8250   -39.3200 N.ar         1 FAD399   0.0000
    22 C4A        -20.7980    52.9470   -39.9800 C.ar         1 FAD399   0.0000
    23 N1          -4.8550    51.5920   -38.3390 N.2          1 FAD399   0.0000
    24 C2          -3.8820    50.8640   -38.9020 C.2          1 FAD399   0.0000
    25 O2          -3.9680    50.4530   -40.0170 O.2          1 FAD399   0.0000
    26 N3          -2.6740    50.5430   -38.1920 N.pl3        1 FAD399   0.0000
    27 C4          -2.4490    50.9750   -36.8960 C.2          1 FAD399   0.0000
    28 O4          -1.4110    50.6840   -36.3390 O.2          1 FAD399   0.0000
    29 C4X         -3.4920    51.7820   -36.2750 C.2          1 FAD399   0.0000
    30 N5          -3.3280    52.2680   -35.0080 N.2          1 FAD399   0.0000
    31 C5X         -4.3400    53.0590   -34.4710 C.ar         1 FAD399   0.0000
    32 C6          -4.1640    53.6110   -33.1650 C.ar         1 FAD399   0.0000
    33 C7          -5.1340    54.4290   -32.5880 C.ar         1 FAD399   0.0000
    34 C7M         -4.9120    55.0130   -31.2130 C.3          1 FAD399   0.0000
    35 C8          -6.3680    54.7290   -33.3170 C.ar         1 FAD399   0.0000
    36 C8M         -7.4630    55.6100   -32.7500 C.3          1 FAD399   0.0000
    37 C9          -6.5440    54.1890   -34.5920 C.ar         1 FAD399   0.0000
    38 C9A         -5.5420    53.3650   -35.1730 C.ar         1 FAD399   0.0000
    39 N10         -5.6640    52.8120   -36.5000 N.pl3        1 FAD399   0.0000
    40 C10         -4.7050    52.0620   -37.0600 C.2          1 FAD399   0.0000
    41 C1'         -6.8750    53.1490   -37.1880 C.3          1 FAD399   0.0000
    42 C2'         -8.0860    52.1580   -37.0450 C.3          1 FAD399   0.0000
    43 O2'         -7.7590    50.9380   -37.7120 O.3          1 FAD399   0.0000
    44 C3'         -9.0260    52.9640   -37.7660 C.3          1 FAD399   0.0000
    45 O3'         -9.2290    54.1490   -36.9340 O.3          1 FAD399   0.0000
    46 C4'        -10.4280    52.5020   -37.9840 C.3          1 FAD399   0.0000
    47 O4'        -10.4350    51.2810   -38.7800 O.3          1 FAD399   0.0000
    48 C5'        -10.7420    53.7400   -38.7160 C.3          1 FAD399   0.0000
    49 O5'        -12.1310    53.9970   -39.1750 O.3          1 FAD399   0.0000
    50 P          -12.4730    55.4650   -39.0760 P.3          1 FAD399   0.0000
    51 O1P        -11.6670    55.9880   -37.8360 O.co2        1 FAD399   0.0000
    52 O2P        -12.2480    56.1750   -40.2560 O.co2        1 FAD399  -1.0000
    53 O3P        -13.9020    55.4250   -38.8440 O.3          1 FAD399   0.0000
    54 H5B1       -16.5187    57.4308   -37.2951 H            1 FAD399   0.0000
    55 H5B2       -15.9279    55.9141   -37.1636 H            1 FAD399   0.0000
    56 H4B        -18.5697    56.6873   -36.9991 H            1 FAD399   0.0000
    57 H3B        -17.1232    54.6035   -36.1322 H            1 FAD399   0.0000
    58 H5         -18.8221    54.0267   -34.8196 H            1 FAD399   0.0000
    59 H2B        -17.5547    53.3702   -37.9362 H            1 FAD399   0.0000
    60 H7         -18.9373    52.6424   -35.7906 H            1 FAD399   0.0000
    61 H1B        -20.2513    54.4386   -37.8171 H            1 FAD399   0.0000
    62 H8A        -17.7661    53.7683   -40.5777 H            1 FAD399   0.0000
    63 H6A1       -22.1630    50.6679   -43.6034 H            1 FAD399   0.0000
    64 H6A2       -20.5285    51.2381   -43.6608 H            1 FAD399   0.0000
    65 H2A        -23.8315    52.0137   -39.6187 H            1 FAD399   0.0000
    66 H13         -1.9754    49.9913   -38.6477 H            1 FAD399   0.0000
    67 H14         -3.3286    53.4065   -32.6549 H            1 FAD399   0.0000
    68 H7M1        -5.7017    55.5701   -30.9560 H            1 FAD399   0.0000
    69 H7M2        -4.7968    54.2725   -30.5509 H            1 FAD399   0.0000
    70 H7M3        -4.0905    55.5831   -31.2217 H            1 FAD399   0.0000
    71 H8M1        -8.2100    55.6803   -33.4110 H            1 FAD399   0.0000
    72 H8M2        -7.8063    55.2098   -31.9003 H            1 FAD399   0.0000
    73 H8M3        -7.0952    56.5212   -32.5645 H            1 FAD399   0.0000
    74 H21         -7.3824    54.3835   -35.1012 H            1 FAD399   0.0000
    75 H1'1        -6.6577    53.2189   -38.1616 H            1 FAD399   0.0000
    76 H1'2        -7.1750    54.0405   -36.8486 H            1 FAD399   0.0000
    77 H2'         -8.3544    52.0147   -36.0924 H            1 FAD399   0.0000
    78 H25         -6.8430    51.0091   -38.1068 H            1 FAD399   0.0000
    79 H3'         -8.6266    53.2372   -38.6411 H            1 FAD399   0.0000
    80 H27         -9.5883    53.8728   -36.0426 H            1 FAD399   0.0000
    81 H4'        -10.9443    52.4131   -37.1322 H            1 FAD399   0.0000
    82 H29         -9.5977    50.7634   -38.6038 H            1 FAD399   0.0000
    83 H5'1       -10.1620    53.7492   -39.5306 H            1 FAD399   0.0000
    84 H5'2       -10.4895    54.5011   -38.1185 H            1 FAD399   0.0000
@<TRIPOS>BOND
     1    1    2      ar
     2    1    3      ar
     3    1    4       1
     4    1   53       1
     5    4    5       1
     6    5    6       1
     7    6    7       1
     8    6    8       1
     9    7   12       1
    10    8    9       1
    11    8   10       1
    12   10   11       1
    13   10   12       1
    14   12   13       1
    15   13   14       1
    16   13   22       1
    17   14   15       2
    18   15   16       1
    19   16   17      ar
    20   16   22      ar
    21   17   18       1
    22   17   19      ar
    23   19   20      ar
    24   20   21      ar
    25   21   22      ar
    26   23   24       1
    27   23   40       2
    28   24   25       2
    29   24   26       1
    30   26   27       1
    31   27   28       2
    32   27   29       1
    33   29   30       2
    34   29   40       1
    35   30   31       1
    36   31   32      ar
    37   31   38      ar
    38   32   33      ar
    39   33   34       1
    40   33   35      ar
    41   35   36       1
    42   35   37      ar
    43   37   38      ar
    44   38   39       1
    45   39   40       1
    46   39   41       1
    47   41   42       1
    48   42   43       1
    49   42   44       1
    50   44   45       1
    51   44   46       1
    52   46   47       1
    53   46   48       1
    54   48   49       1
    55   49   50       1
    56   50   51      ar
    57   50   52      ar
    58   50   53       1
    59   48   84       1
    60    5   54       1
    61    5   55       1
    62    6   56       1
    63    8   57       1
    64    9   58       1
    65   10   59       1
    66   11   60       1
    67   12   61       1
    68   14   62       1
    69   18   63       1
    70   18   64       1
    71   20   65       1
    72   26   66       1
    73   32   67       1
    74   34   68       1
    75   34   69       1
    76   34   70       1
    77   36   71       1
    78   36   72       1
    79   36   73       1
    80   37   74       1
    81   41   75       1
    82   41   76       1
    83   42   77       1
    84   43   78       1
    85   44   79       1
    86   45   80       1
    87   46   81       1
    88   47   82       1
    89   48   83       1
@<TRIPOS>SUBSTRUCTURE
     1 FAD399      1 GROUP             4 A     FAD     0 **** FAD A 399
