@<TRIPOS>MOLECULE
2x86_ADP_3_ligand
   39    41     1     0     0
SMALL
NO_CHARGES


@<TRIPOS>ATOM
     1 PB          49.1560    -8.7020   106.9790 P.3          1 ADP401   0.0000
     2 O1B         49.4800    -8.2010   108.3620 O.co2        1 ADP401   0.0000
     3 O2B         47.8140    -9.4030   106.8390 O.co2        1 ADP401  -1.0000
     4 O3B         50.3210    -9.4090   106.3200 O.co2        1 ADP401  -1.0000
     5 PA          49.9860    -6.2740   105.6250 P.3          1 ADP401   0.0000
     6 O1A         49.2110    -5.0680   105.1380 O.co2        1 ADP401   0.0000
     7 O2A         51.0610    -6.1150   106.6760 O.co2        1 ADP401  -1.0000
     8 O3A         48.8880    -7.3630   106.1090 O.3          1 ADP401   0.0000
     9 O5'         50.6840    -6.9530   104.3400 O.3          1 ADP401   0.0000
    10 C5'         49.9510    -7.1130   103.1250 C.3          1 ADP401   0.0000
    11 C4'         50.5690    -8.1540   102.1860 C.3          1 ADP401   0.0000
    12 O4'         51.8360    -7.7060   101.6900 O.3          1 ADP401   0.0000
    13 C3'         50.7940    -9.5320   102.8090 C.3          1 ADP401   0.0000
    14 O3'         49.6790   -10.4030   102.5940 O.3          1 ADP401   0.0000
    15 C2'         52.0510   -10.0360   102.1300 C.3          1 ADP401   0.0000
    16 O2'         51.7700   -10.8030   100.9650 O.3          1 ADP401   0.0000
    17 C1'         52.7760    -8.7770   101.7030 C.3          1 ADP401   0.0000
    18 N9          53.8400    -8.4010   102.6520 N.pl3        1 ADP401   0.0000
    19 C8          53.7010    -7.8160   103.8590 C.2          1 ADP401   0.0000
    20 N7          54.9190    -7.6110   104.4260 N.2          1 ADP401   0.0000
    21 C5          55.8490    -8.0660   103.5640 C.ar         1 ADP401   0.0000
    22 C6          57.3290    -8.1590   103.5090 C.ar         1 ADP401   0.0000
    23 N6          58.1060    -7.7150   104.5290 N.pl3        1 ADP401   0.0000
    24 N1          57.8810    -8.7140   102.4000 N.ar         1 ADP401   0.0000
    25 C2          57.1370    -9.1710   101.3660 C.ar         1 ADP401   0.0000
    26 N3          55.7950    -9.1110   101.3520 N.ar         1 ADP401   0.0000
    27 C4          55.1210    -8.5820   102.3960 C.ar         1 ADP401   0.0000
    28 H5'1        49.9235    -6.2328   102.6511 H            1 ADP401   0.0000
    29 H5'2        49.0198    -7.3997   103.3500 H            1 ADP401   0.0000
    30 H4'         49.9551    -8.2663   101.4046 H            1 ADP401   0.0000
    31 H3'         50.9589    -9.4338   103.7904 H            1 ADP401   0.0000
    32 H5          49.2291   -10.1625   101.7339 H            1 ADP401   0.0000
    33 H2'         52.6094   -10.5626   102.7710 H            1 ADP401   0.0000
    34 H7          51.2151   -11.5967   101.2143 H            1 ADP401   0.0000
    35 H1'         53.1633    -8.9008   100.7894 H            1 ADP401   0.0000
    36 H9          52.8269    -7.5685   104.2770 H            1 ADP401   0.0000
    37 H10         59.1014    -7.7888   104.4680 H            1 ADP401   0.0000
    38 H11         57.6832    -7.3140   105.3417 H            1 ADP401   0.0000
    39 H12         57.6064    -9.5705   100.5785 H            1 ADP401   0.0000
@<TRIPOS>BOND
     1    1    2      ar
     2    1    3      ar
     3    1    4      ar
     4    1    8       1
     5    5    6      ar
     6    5    7      ar
     7    5    8       1
     8    5    9       1
     9    9   10       1
    10   10   11       1
    11   11   12       1
    12   11   13       1
    13   12   17       1
    14   13   14       1
    15   13   15       1
    16   15   16       1
    17   15   17       1
    18   17   18       1
    19   18   19       1
    20   18   27       1
    21   19   20       2
    22   20   21       1
    23   21   22      ar
    24   21   27      ar
    25   22   23       1
    26   22   24      ar
    27   24   25      ar
    28   25   26      ar
    29   26   27      ar
    30   25   39       1
    31   23   38       1
    32   23   37       1
    33   10   28       1
    34   10   29       1
    35   11   30       1
    36   13   31       1
    37   14   32       1
    38   15   33       1
    39   16   34       1
    40   17   35       1
    41   19   36       1
@<TRIPOS>SUBSTRUCTURE
     1 ADP401      1 GROUP             4 B     ADP     0 **** ADP B 401
