@<TRIPOS>MOLECULE
1zc3_GNP_1_ligand
   45    47     1     0     0
SMALL
NO_CHARGES


@<TRIPOS>ATOM
     1 PG          55.8930    56.5370    14.2360 P.3          1 GNP700   0.0000
     2 O1G         56.0020    55.3600    13.3080 O.co2        1 GNP700   0.0000
     3 O2G         55.8530    56.1420    15.6900 O.co2        1 GNP700  -1.0000
     4 O3G         54.7190    57.3730    13.8610 O.co2        1 GNP700  -1.0000
     5 N3B         57.3240    57.4240    13.9970 N.3          1 GNP700   0.0000
     6 PB          57.7210    58.8060    14.8350 P.3          1 GNP700   0.0000
     7 O1B         57.1100    60.0320    14.3090 O.co2        1 GNP700   0.0000
     8 O2B         57.4600    58.5190    16.3070 O.co2        1 GNP700  -1.0000
     9 O3A         59.3040    58.9280    14.5450 O.3          1 GNP700   0.0000
    10 PA          60.5280    58.5130    15.5200 P.3          1 GNP700   0.0000
    11 O1A         60.6310    59.4270    16.7250 O.co2        1 GNP700   0.0000
    12 O2A         60.3680    57.0530    15.7720 O.co2        1 GNP700  -1.0000
    13 O5'         61.7460    58.8760    14.5750 O.3          1 GNP700   0.0000
    14 C5'         61.9920    58.2080    13.3070 C.3          1 GNP700   0.0000
    15 C4'         63.4890    58.1570    13.0510 C.3          1 GNP700   0.0000
    16 O4'         63.9950    59.5290    12.8780 O.3          1 GNP700   0.0000
    17 C3'         64.3270    57.5560    14.1810 C.3          1 GNP700   0.0000
    18 O3'         65.3320    56.7300    13.5510 O.3          1 GNP700   0.0000
    19 C2'         64.9550    58.7270    14.8730 C.3          1 GNP700   0.0000
    20 O2'         66.2250    58.4770    15.4650 O.3          1 GNP700   0.0000
    21 C1'         65.0610    59.8120    13.7910 C.3          1 GNP700   0.0000
    22 N9          64.8560    61.1780    14.2590 N.pl3        1 GNP700   0.0000
    23 C8          63.7860    61.7170    14.9540 C.2          1 GNP700   0.0000
    24 N7          63.8940    63.0030    15.2310 N.2          1 GNP700   0.0000
    25 C5          65.1300    63.3220    14.6700 C.2          1 GNP700   0.0000
    26 C6          65.8170    64.5910    14.6370 C.2          1 GNP700   0.0000
    27 O6          65.4780    65.6880    15.0830 O.2          1 GNP700   0.0000
    28 N1          67.0790    64.4960    13.9630 N.pl3        1 GNP700   0.0000
    29 C2          67.6000    63.3390    13.4050 C.2          1 GNP700   0.0000
    30 N2          68.8070    63.4390    12.8140 N.pl3        1 GNP700   0.0000
    31 N3          66.9480    62.1610    13.4390 N.2          1 GNP700   0.0000
    32 C4          65.7250    62.2240    14.0890 C.2          1 GNP700   0.0000
    33 H3B         58.0713    56.7815    14.1667 H            1 GNP700   0.0000
    34 H5'1        61.5437    58.7139    12.5700 H            1 GNP700   0.0000
    35 H5'2        61.6270    57.2777    13.3428 H            1 GNP700   0.0000
    36 H4'         63.6575    57.6404    12.2115 H            1 GNP700   0.0000
    37 H3'         63.7606    57.0232    14.8097 H            1 GNP700   0.0000
    38 H6          66.1540    56.7128    14.1202 H            1 GNP700   0.0000
    39 H2'         64.3302    59.0480    15.5848 H            1 GNP700   0.0000
    40 H8          66.0985    58.1703    16.4084 H            1 GNP700   0.0000
    41 H1'         65.9408    59.7406    13.3211 H            1 GNP700   0.0000
    42 H10         62.9919    61.1731    15.2253 H            1 GNP700   0.0000
    43 H11         67.6262    65.3298    13.8897 H            1 GNP700   0.0000
    44 H12         69.2274    62.6336    12.3961 H            1 GNP700   0.0000
    45 H13         69.2823    64.3186    12.7933 H            1 GNP700   0.0000
@<TRIPOS>BOND
     1    1    2      ar
     2    1    3      ar
     3    1    4      ar
     4    1    5       1
     5    5    6       1
     6    6    7      ar
     7    6    8      ar
     8    6    9       1
     9    9   10       1
    10   10   11      ar
    11   10   12      ar
    12   10   13       1
    13   13   14       1
    14   14   15       1
    15   15   16       1
    16   15   17       1
    17   16   21       1
    18   17   18       1
    19   17   19       1
    20   19   20       1
    21   19   21       1
    22   21   22       1
    23   22   23       1
    24   22   32       1
    25   23   24       2
    26   24   25       1
    27   25   26       1
    28   25   32       2
    29   26   27       2
    30   26   28       1
    31   28   29       1
    32   29   30       1
    33   29   31       2
    34   31   32       1
    35   30   45       1
    36   30   44       1
    37    5   33       1
    38   28   43       1
    39   23   42       1
    40   14   34       1
    41   14   35       1
    42   15   36       1
    43   17   37       1
    44   18   38       1
    45   19   39       1
    46   20   40       1
    47   21   41       1
@<TRIPOS>SUBSTRUCTURE
     1 GNP700      1 GROUP             4 A     GNP     0 **** GNP A 700
