@<TRIPOS>MOLECULE
2y85_137_2_ligand
   38    38     1     0     0
SMALL
NO_CHARGES


@<TRIPOS>ATOM
     1 P            2.1940     0.7690    39.4210 P.3          1 1371247   0.0000
     2 O1P          2.1400     2.3890    39.6300 O.co2        1 1371247   0.0000
     3 O2P          1.1560     0.1290    40.4830 O.co2        1 1371247  -1.0000
     4 O3P          1.9100     0.4350    38.0060 O.co2        1 1371247  -1.0000
     5 O5'          3.6210     0.2200    39.8520 O.3          1 1371247   0.0000
     6 C5'          4.7830     1.0240    39.7460 C.3          1 1371247   0.0000
     7 C4'          5.9770     0.1170    39.8360 C.3          1 1371247   0.0000
     8 O4'          5.9290    -0.6220    41.0510 O.3          1 1371247   0.0000
     9 C3'          5.9950    -0.8920    38.6690 C.3          1 1371247   0.0000
    10 O3'          5.4410    -0.2960    37.4700 O.3          1 1371247   0.0000
    11 C2'          7.4670    -1.3050    38.4900 C.3          1 1371247   0.0000
    12 O2'          8.2090    -0.3880    37.6310 O.3          1 1371247   0.0000
    13 C1'          7.6330    -2.7780    38.1060 C.3          1 1371247   0.0000
    14 NH           8.7410    -3.2850    38.9360 N.pl3        1 1371247   0.0000
    15 C1          10.5060    -4.8860    39.2450 C.ar         1 1371247   0.0000
    16 C2           9.1920    -4.5380    38.8810 C.ar         1 1371247   0.0000
    17 C3           8.2940    -5.5290    38.4680 C.ar         1 1371247   0.0000
    18 C4           8.6970    -6.8570    38.4100 C.ar         1 1371247   0.0000
    19 C5           9.9950    -7.2010    38.7660 C.ar         1 1371247   0.0000
    20 C6          10.8860    -6.2280    39.1840 C.ar         1 1371247   0.0000
    21 C7          11.5840    -3.8730    39.7010 C.2          1 1371247   0.0000
    22 O71         11.3550    -2.6500    39.7300 O.co2        1 1371247   0.0000
    23 O72         12.6920    -4.3420    40.0120 O.co2        1 1371247  -1.0000
    24 H5'1         4.8049     1.6905    40.4912 H            1 1371247   0.0000
    25 H5'2         4.7857     1.5043    38.8689 H            1 1371247   0.0000
    26 H4'          6.8129     0.6654    39.8137 H            1 1371247   0.0000
    27 H4           5.0936    -1.1712    41.0743 H            1 1371247   0.0000
    28 H3'          5.4545    -1.6955    38.9186 H            1 1371247   0.0000
    29 H6           5.8706    -0.7054    36.6651 H            1 1371247   0.0000
    30 H2'          7.8813    -1.2168    39.3959 H            1 1371247   0.0000
    31 H8           8.1424    -0.6935    36.6811 H            1 1371247   0.0000
    32 H1'1         7.8580    -2.8619    37.1353 H            1 1371247   0.0000
    33 H1'2         6.7929    -3.2852    38.2985 H            1 1371247   0.0000
    34 HH           9.1786    -2.6535    39.5760 H            1 1371247   0.0000
    35 H12          7.3594    -5.2802    38.2139 H            1 1371247   0.0000
    36 H13          8.0546    -7.5634    38.1128 H            1 1371247   0.0000
    37 H14         10.2870    -8.1563    38.7200 H            1 1371247   0.0000
    38 H15         11.8149    -6.4898    39.4460 H            1 1371247   0.0000
@<TRIPOS>BOND
     1    1    2      ar
     2    1    3      ar
     3    1    4      ar
     4    1    5       1
     5    5    6       1
     6    6    7       1
     7    7    8       1
     8    7    9       1
     9    9   10       1
    10    9   11       1
    11   11   12       1
    12   11   13       1
    13   13   14       1
    14   14   16       1
    15   15   16      ar
    16   15   20      ar
    17   15   21       1
    18   16   17      ar
    19   17   18      ar
    20   18   19      ar
    21   19   20      ar
    22   21   22      ar
    23   21   23      ar
    24   19   37       1
    25   20   38       1
    26    6   24       1
    27    6   25       1
    28    7   26       1
    29    8   27       1
    30    9   28       1
    31   10   29       1
    32   11   30       1
    33   12   31       1
    34   13   32       1
    35   13   33       1
    36   14   34       1
    37   17   35       1
    38   18   36       1
@<TRIPOS>SUBSTRUCTURE
     1 1371247     1 GROUP             4 B     137     0 **** 137 B1247
