@<TRIPOS>MOLECULE
3fbu_COA_1_ligand
   80    82     1     0     0
SMALL
NO_CHARGES


@<TRIPOS>ATOM
     1 N1A         31.0000    54.2270    29.6210 N.ar         1 COA169   0.0000
     2 C2A         29.6980    53.8970    29.8970 C.ar         1 COA169   0.0000
     3 N3A         28.7110    54.8410    29.7950 N.ar         1 COA169   0.0000
     4 C4A         29.0420    56.1020    29.4070 C.ar         1 COA169   0.0000
     5 C5A         30.3500    56.4550    29.1200 C.ar         1 COA169   0.0000
     6 C6A         31.3500    55.4900    29.2120 C.ar         1 COA169   0.0000
     7 N6A         32.6190    55.7790    28.9160 N.pl3        1 COA169   0.0000
     8 N7A         30.3590    57.7490    28.7730 N.2          1 COA169   0.0000
     9 C8A         29.1030    58.2340    28.8420 C.2          1 COA169   0.0000
    10 N9A         28.2750    57.2170    29.2430 N.pl3        1 COA169   0.0000
    11 C1B         26.8090    57.2000    29.3250 C.3          1 COA169   0.0000
    12 C2B         26.2420    58.2780    30.2510 C.3          1 COA169   0.0000
    13 O2B         26.2630    57.8780    31.6160 O.3          1 COA169   0.0000
    14 C3B         24.8480    58.3980    29.6740 C.3          1 COA169   0.0000
    15 O3B         24.0080    57.3720    30.1790 O.3          1 COA169   0.0000
    16 P3B         23.0720    57.5410    31.4900 P.3          1 COA169   0.0000
    17 O7A         22.0770    56.4290    31.5720 O.co2        1 COA169   0.0000
    18 O8A         23.9830    57.5740    32.6890 O.co2        1 COA169  -1.0000
    19 O9A         22.3500    58.8610    31.3280 O.co2        1 COA169  -1.0000
    20 C4B         25.0610    58.1880    28.1670 C.3          1 COA169   0.0000
    21 O4B         26.2420    57.4430    28.0440 O.3          1 COA169   0.0000
    22 C5B         25.2270    59.4940    27.4000 C.3          1 COA169   0.0000
    23 O5B         23.9700    60.1430    27.4010 O.3          1 COA169   0.0000
    24 P1A         23.8610    61.7140    27.1190 P.3          1 COA169   0.0000
    25 O1A         24.3230    62.4730    28.3510 O.co2        1 COA169   0.0000
    26 O2A         22.4810    62.0430    26.7050 O.co2        1 COA169  -1.0000
    27 O3A         24.8590    61.8860    25.8720 O.3          1 COA169   0.0000
    28 P2A         25.8900    63.1030    25.6270 P.3          1 COA169   0.0000
    29 O4A         25.1320    64.4070    25.6800 O.co2        1 COA169   0.0000
    30 O5A         27.0570    62.9670    26.6110 O.co2        1 COA169  -1.0000
    31 O6A         26.3840    62.7620    24.1260 O.3          1 COA169   0.0000
    32 CBP         27.4540    61.5030    22.4020 C.3          1 COA169   0.0000
    33 CCP         26.6200    61.4350    23.6820 C.3          1 COA169   0.0000
    34 CDP         26.6800    62.4370    21.4540 C.3          1 COA169   0.0000
    35 CEP         27.5250    60.0540    21.9170 C.3          1 COA169   0.0000
    36 CAP         28.8660    62.0620    22.7210 C.3          1 COA169   0.0000
    37 OAP         29.6060    61.1670    23.5370 O.3          1 COA169   0.0000
    38 C9P         29.6970    62.2910    21.4950 C.2          1 COA169   0.0000
    39 O9P         29.4880    63.4100    20.7250 O.2          1 COA169   0.0000
    40 N8P         30.5750    61.3640    21.0990 N.am         1 COA169   0.0000
    41 C7P         31.5210    61.6270    20.0160 C.3          1 COA169   0.0000
    42 C6P         30.8840    61.5760    18.6380 C.3          1 COA169   0.0000
    43 C5P         30.2950    60.1980    18.3400 C.2          1 COA169   0.0000
    44 O5P         30.9550    59.1410    18.4610 O.2          1 COA169   0.0000
    45 N4P         29.0520    60.2070    17.9050 N.am         1 COA169   0.0000
    46 C3P         28.3010    58.9620    17.6990 C.3          1 COA169   0.0000
    47 C2P         28.5850    58.2710    16.3840 C.3          1 COA169   0.0000
    48 S1P         27.4630    56.8590    16.1460 S.3          1 COA169   0.0000
    49 H2A         29.4684    52.9639    30.1737 H            1 COA169   0.0000
    50 H6A1        32.8655    56.7015    28.6188 H            1 COA169   0.0000
    51 H6A2        33.3233    55.0731    28.9914 H            1 COA169   0.0000
    52 H8A         28.8238    59.1720    28.6366 H            1 COA169   0.0000
    53 H1B         26.5108    56.3021    29.6487 H            1 COA169   0.0000
    54 H2B         26.7421    59.1359    30.1326 H            1 COA169   0.0000
    55 H7          25.3304    57.8755    31.9770 H            1 COA169   0.0000
    56 H3B         24.4606    59.3013    29.8585 H            1 COA169   0.0000
    57 H4B         24.2947    57.6696    27.7875 H            1 COA169   0.0000
    58 H5B1        25.5144    59.3056    26.4609 H            1 COA169   0.0000
    59 H5B2        25.9103    60.0701    27.8485 H            1 COA169   0.0000
    60 HCP1        25.7492    60.9802    23.4953 H            1 COA169   0.0000
    61 HCP2        27.1179    60.9262    24.3843 H            1 COA169   0.0000
    62 HDP1        27.1781    62.5235    20.5912 H            1 COA169   0.0000
    63 HDP2        25.7724    62.0558    21.2781 H            1 COA169   0.0000
    64 HDP3        26.5867    63.3384    21.8769 H            1 COA169   0.0000
    65 HEP1        28.0601    60.0107    21.0733 H            1 COA169   0.0000
    66 HEP2        27.9609    59.4890    22.6175 H            1 COA169   0.0000
    67 HEP3        26.6004    59.7150    21.7431 H            1 COA169   0.0000
    68 HAP         28.7650    62.9302    23.2069 H            1 COA169   0.0000
    69 H21         29.4387    61.3781    24.5000 H            1 COA169   0.0000
    70 H8P         30.5849    60.4729    21.5527 H            1 COA169   0.0000
    71 H7P1        32.2478    60.9412    20.0555 H            1 COA169   0.0000
    72 H7P2        31.9135    62.5368    20.1510 H            1 COA169   0.0000
    73 H6P1        31.5796    61.7868    17.9512 H            1 COA169   0.0000
    74 H6P2        30.1536    62.2576    18.5929 H            1 COA169   0.0000
    75 H4P         28.6091    61.0822    17.7104 H            1 COA169   0.0000
    76 H3P1        27.3248    59.1760    17.7354 H            1 COA169   0.0000
    77 H3P2        28.5318    58.3313    18.4399 H            1 COA169   0.0000
    78 H2P1        29.5299    57.9437    16.3823 H            1 COA169   0.0000
    79 H2P2        28.4565    58.9224    15.6362 H            1 COA169   0.0000
    80 H1P         27.9208    56.1579    15.5994 H            1 COA169   0.0000
@<TRIPOS>BOND
     1    1    2      ar
     2    1    6      ar
     3    2    3      ar
     4    3    4      ar
     5    4    5      ar
     6    4   10       1
     7    5    6      ar
     8    5    8       1
     9    6    7       1
    10    8    9       2
    11    9   10       1
    12   10   11       1
    13   11   12       1
    14   11   21       1
    15   12   13       1
    16   12   14       1
    17   14   15       1
    18   14   20       1
    19   15   16       1
    20   16   17      ar
    21   16   18      ar
    22   16   19      ar
    23   20   21       1
    24   20   22       1
    25   22   23       1
    26   23   24       1
    27   24   25      ar
    28   24   26      ar
    29   24   27       1
    30   27   28       1
    31   28   29      ar
    32   28   30      ar
    33   28   31       1
    34   31   33       1
    35   32   33       1
    36   32   34       1
    37   32   35       1
    38   32   36       1
    39   36   37       1
    40   36   38       1
    41   38   39       2
    42   38   40      am
    43   40   41       1
    44   41   42       1
    45   42   43       1
    46   43   44       2
    47   43   45      am
    48   45   46       1
    49   46   47       1
    50   47   48       1
    51    2   49       1
    52    7   50       1
    53    7   51       1
    54    9   52       1
    55   11   53       1
    56   12   54       1
    57   13   55       1
    58   14   56       1
    59   48   80       1
    60   47   79       1
    61   20   57       1
    62   22   58       1
    63   22   59       1
    64   47   78       1
    65   46   77       1
    66   33   60       1
    67   33   61       1
    68   34   62       1
    69   34   63       1
    70   34   64       1
    71   35   65       1
    72   35   66       1
    73   35   67       1
    74   36   68       1
    75   37   69       1
    76   40   70       1
    77   41   71       1
    78   41   72       1
    79   42   73       1
    80   42   74       1
    81   45   75       1
    82   46   76       1
@<TRIPOS>SUBSTRUCTURE
     1 COA169      1 GROUP             4 A     COA     0 **** COA A 169
