@<TRIPOS>MOLECULE
2ada_HPR_1_ligand
   34    36     1     0     0
SMALL
NO_CHARGES


@<TRIPOS>ATOM
     1 N1           1.3740    21.0250    39.0150 N.pl3        1 HPR353   0.0000
     2 C2           2.3800    20.6620    39.8120 C.2          1 HPR353   0.0000
     3 N3           3.5440    20.1910    39.3810 N.2          1 HPR353   0.0000
     4 C4           3.7140    20.0710    38.0510 C.2          1 HPR353   0.0000
     5 C5           2.7580    20.4160    37.1670 C.2          1 HPR353   0.0000
     6 C6           1.4950    20.9620    37.6150 C.3          1 HPR353   0.0000
     7 O6           1.2590    22.2410    37.0340 O.3          1 HPR353   0.0000
     8 N7           3.2090    20.1790    35.9160 N.2          1 HPR353   1.0000
     9 C8           4.4450    19.6980    36.0730 C.2          1 HPR353   0.0000
    10 N9           4.7840    19.6280    37.3620 N.pl3        1 HPR353   0.0000
    11 C1'          5.9050    18.9790    37.9010 C.3          1 HPR353   0.0000
    12 C2'          6.2900    17.7450    37.0850 C.3          1 HPR353   0.0000
    13 O2'          6.5180    16.7490    38.0750 O.3          1 HPR353   0.0000
    14 C3'          7.6790    18.0480    36.5420 C.3          1 HPR353   0.0000
    15 O3'          8.5210    16.8940    36.5830 O.3          1 HPR353   0.0000
    16 C4'          8.1990    19.1680    37.4400 C.3          1 HPR353   0.0000
    17 O4'          7.0470    19.8500    37.9560 O.3          1 HPR353   0.0000
    18 C5'          9.1110    20.1360    36.6980 C.3          1 HPR353   0.0000
    19 O5'          8.6500    20.4200    35.3740 O.3          1 HPR353   0.0000
    20 H1           0.5185    21.3477    39.4200 H            1 HPR353   0.0000
    21 H2           2.2488    20.7505    40.7994 H            1 HPR353   0.0000
    22 H3           0.7759    20.3509    37.2843 H            1 HPR353   0.0000
    23 H4           0.4811    22.1844    36.4082 H            1 HPR353   0.0000
    24 H5           5.0420    19.4244    35.3188 H            1 HPR353   0.0000
    25 H1'          5.6846    18.6869    38.8316 H            1 HPR353   0.0000
    26 H2'          5.6217    17.4873    36.3872 H            1 HPR353   0.0000
    27 H8           7.2531    17.0466    38.6842 H            1 HPR353   0.0000
    28 H3'          7.6071    18.3781    35.6008 H            1 HPR353   0.0000
    29 H10          9.1857    16.9397    35.8373 H            1 HPR353   0.0000
    30 H4'          8.7055    18.7643    38.2019 H            1 HPR353   0.0000
    31 H5'1        10.0249    19.7343    36.6398 H            1 HPR353   0.0000
    32 H5'2         9.1555    20.9924    37.2124 H            1 HPR353   0.0000
    33 H5'          9.0446    19.7598    34.7349 H            1 HPR353   0.0000
    34 H15          2.7216    20.3312    35.0562 H            1 HPR353   0.0000
@<TRIPOS>BOND
     1    1    2       1
     2    1    6       1
     3    2    3       2
     4    3    4       1
     5    4    5       2
     6    4   10       1
     7    5    6       1
     8    5    8       1
     9    6    7       1
    10    8    9       2
    11    9   10       1
    12   10   11       1
    13   11   12       1
    14   11   17       1
    15   12   13       1
    16   12   14       1
    17   14   15       1
    18   14   16       1
    19   16   17       1
    20   16   18       1
    21   18   19       1
    22    1   20       1
    23    2   21       1
    24    6   22       1
    25    7   23       1
    26    9   24       1
    27   11   25       1
    28   12   26       1
    29   13   27       1
    30   14   28       1
    31   15   29       1
    32   16   30       1
    33   18   31       1
    34   18   32       1
    35   19   33       1
    36    8   34       1
@<TRIPOS>SUBSTRUCTURE
     1 HPR353      1 GROUP             4 A     HPR     0 **** HPR A 353
