@<TRIPOS>MOLECULE
1sbz_FMN_2_ligand
   50    52     1     0     0
SMALL
NO_CHARGES


@<TRIPOS>ATOM
     1 N1          32.7220   -26.8690   -18.2970 N.2          1 FMN1402   0.0000
     2 C2          32.4380   -26.3910   -17.0370 C.2          1 FMN1402   0.0000
     3 O2          33.3400   -26.3750   -16.2010 O.2          1 FMN1402   0.0000
     4 N3          31.1600   -25.9350   -16.7240 N.pl3        1 FMN1402   0.0000
     5 C4          30.1660   -25.9680   -17.6960 C.2          1 FMN1402   0.0000
     6 O4          29.0340   -25.5360   -17.4560 O.2          1 FMN1402   0.0000
     7 C4A         30.4640   -26.4540   -18.9750 C.2          1 FMN1402   0.0000
     8 N5          29.4820   -26.4840   -19.9430 N.2          1 FMN1402   0.0000
     9 C5A         29.7560   -26.9420   -21.2160 C.ar         1 FMN1402   0.0000
    10 C6          28.7400   -26.9510   -22.1730 C.ar         1 FMN1402   0.0000
    11 C7          28.9860   -27.4110   -23.4640 C.ar         1 FMN1402   0.0000
    12 C7M         27.9960   -27.0290   -24.5380 C.3          1 FMN1402   0.0000
    13 C8          30.2720   -27.8820   -23.7890 C.ar         1 FMN1402   0.0000
    14 C8M         30.6760   -28.1350   -25.2180 C.3          1 FMN1402   0.0000
    15 C9          31.2720   -27.8710   -22.8220 C.ar         1 FMN1402   0.0000
    16 C9A         31.0310   -27.4050   -21.5310 C.ar         1 FMN1402   0.0000
    17 N10         32.0340   -27.3920   -20.5640 N.pl3        1 FMN1402   0.0000
    18 C10         31.7530   -26.9030   -19.2850 C.2          1 FMN1402   0.0000
    19 C1'         33.3190   -28.1320   -20.8320 C.3          1 FMN1402   0.0000
    20 C2'         34.4190   -27.1320   -21.1690 C.3          1 FMN1402   0.0000
    21 O2'         34.0800   -26.4440   -22.3570 O.3          1 FMN1402   0.0000
    22 C3'         35.7770   -27.8260   -21.3030 C.3          1 FMN1402   0.0000
    23 O3'         36.2560   -28.1750   -20.0230 O.3          1 FMN1402   0.0000
    24 C4'         36.8320   -26.9600   -21.9980 C.3          1 FMN1402   0.0000
    25 O4'         38.0900   -27.6060   -21.9420 O.3          1 FMN1402   0.0000
    26 C5'         36.9510   -25.5790   -21.3560 C.3          1 FMN1402   0.0000
    27 O5'         37.9560   -24.8320   -22.0070 O.3          1 FMN1402   0.0000
    28 P           38.0280   -23.2340   -21.8140 P.3          1 FMN1402   0.0000
    29 O1P         36.9250   -22.5660   -22.5880 O.co2        1 FMN1402   0.0000
    30 O2P         39.3570   -22.7400   -22.3170 O.co2        1 FMN1402  -1.0000
    31 O3P         37.8470   -22.8980   -20.3520 O.co2        1 FMN1402  -1.0000
    32 H1          30.9588   -25.5869   -15.8084 H            1 FMN1402   0.0000
    33 H2          27.8269   -26.6241   -21.9292 H            1 FMN1402   0.0000
    34 H7M1        28.2854   -27.4191   -25.4121 H            1 FMN1402   0.0000
    35 H7M2        27.0916   -27.3821   -24.2985 H            1 FMN1402   0.0000
    36 H7M3        27.9553   -26.0328   -24.6147 H            1 FMN1402   0.0000
    37 H8M1        31.6200   -28.4639   -25.2443 H            1 FMN1402   0.0000
    38 H8M2        30.0717   -28.8239   -25.6183 H            1 FMN1402   0.0000
    39 H8M3        30.6045   -27.2851   -25.7401 H            1 FMN1402   0.0000
    40 H9          32.1844   -28.2050   -23.0586 H            1 FMN1402   0.0000
    41 H1'1        33.1895   -28.7573   -21.6016 H            1 FMN1402   0.0000
    42 H1'2        33.5795   -28.6531   -20.0192 H            1 FMN1402   0.0000
    43 H2'         34.4778   -26.4661   -20.4253 H            1 FMN1402   0.0000
    44 H13         33.5567   -25.6229   -22.1289 H            1 FMN1402   0.0000
    45 H3'         35.6539   -28.6638   -21.8349 H            1 FMN1402   0.0000
    46 H15         35.9361   -29.0923   -19.7861 H            1 FMN1402   0.0000
    47 H4'         36.5724   -26.8464   -22.9570 H            1 FMN1402   0.0000
    48 H17         37.9558   -28.5969   -21.9328 H            1 FMN1402   0.0000
    49 H5'1        37.1875   -25.6817   -20.3898 H            1 FMN1402   0.0000
    50 H5'2        36.0771   -25.0996   -21.4361 H            1 FMN1402   0.0000
@<TRIPOS>BOND
     1    1    2       1
     2    1   18       2
     3    2    3       2
     4    2    4       1
     5    4    5       1
     6    5    6       2
     7    5    7       1
     8    7    8       2
     9    7   18       1
    10    8    9       1
    11    9   10      ar
    12    9   16      ar
    13   10   11      ar
    14   11   12       1
    15   11   13      ar
    16   13   14       1
    17   13   15      ar
    18   15   16      ar
    19   16   17       1
    20   17   18       1
    21   17   19       1
    22   19   20       1
    23   20   21       1
    24   20   22       1
    25   22   23       1
    26   22   24       1
    27   24   25       1
    28   24   26       1
    29   26   27       1
    30   27   28       1
    31   28   29      ar
    32   28   30      ar
    33   28   31      ar
    34    4   32       1
    35   10   33       1
    36   12   34       1
    37   12   35       1
    38   12   36       1
    39   14   37       1
    40   14   38       1
    41   14   39       1
    42   15   40       1
    43   19   41       1
    44   19   42       1
    45   20   43       1
    46   21   44       1
    47   22   45       1
    48   23   46       1
    49   24   47       1
    50   25   48       1
    51   26   49       1
    52   26   50       1
@<TRIPOS>SUBSTRUCTURE
     1 FMN1402     1 GROUP             4 B     FMN     0 **** FMN B1402
