@<TRIPOS>MOLECULE
4nh9_2LC_1_ligand
   55    58     1     0     0
SMALL
NO_CHARGES


@<TRIPOS>ATOM
     1 C1         -18.4650   -37.8630    -9.5180 C.3          1 2LC401   0.0000
     2 C2         -18.7250   -36.6660    -8.6360 C.2          1 2LC401   0.0000
     3 C3         -18.4300   -35.3890    -8.9660 C.2          1 2LC401   0.0000
     4 N4         -18.7690   -34.5440    -7.9370 N.pl3        1 2LC401   0.0000
     5 C5         -19.3250   -35.2580    -6.9310 C.2          1 2LC401   0.0000
     6 C6         -19.3080   -36.6120    -7.2890 C.2          1 2LC401   0.0000
     7 C7         -19.8560   -37.6540    -6.3750 C.2          1 2LC401   0.0000
     8 O8         -19.9310   -38.8170    -6.7030 O.2          1 2LC401   0.0000
     9 C9         -20.3570   -37.2340    -4.9770 C.3          1 2LC401   0.0000
    10 C10        -20.7850   -35.7490    -4.8480 C.3          1 2LC401   0.0000
    11 C11        -22.2200   -35.5170    -5.3230 C.3          1 2LC401   0.0000
    12 C12        -20.7220   -35.3160    -3.3860 C.3          1 2LC401   0.0000
    13 C13        -19.8670   -34.7760    -5.5870 C.3          1 2LC401   0.0000
    14 C14        -18.6650   -33.1380    -7.9460 C.ar         1 2LC401   0.0000
    15 C15        -19.3240   -32.3980    -8.9460 C.ar         1 2LC401   0.0000
    16 C16        -19.2980   -30.9850    -8.9530 C.ar         1 2LC401   0.0000
    17 N17        -19.9150   -30.2070    -9.9520 N.pl3        1 2LC401   0.0000
    18 C18        -20.6580   -30.6730   -11.1310 C.3          1 2LC401   0.0000
    19 C20        -22.1800   -30.6200   -10.8580 C.3          1 2LC401   0.0000
    20 C21        -22.7090   -30.3750   -12.2920 C.3          1 2LC401   0.0000
    21 O22        -21.7830   -29.3970   -12.8200 O.3          1 2LC401   0.0000
    22 C23        -20.4680   -29.6920   -12.3030 C.3          1 2LC401   0.0000
    23 C24        -18.6010   -30.3220    -7.8890 C.ar         1 2LC401   0.0000
    24 C25        -18.5470   -28.8480    -7.7840 C.2          1 2LC401   0.0000
    25 N26        -17.4350   -28.1910    -7.3900 N.am         1 2LC401   0.0000
    26 O27        -19.5520   -28.2200    -8.0320 O.2          1 2LC401   0.0000
    27 C28        -17.9840   -31.0860    -6.8690 C.ar         1 2LC401   0.0000
    28 F29        -17.3310   -30.4810    -5.8620 F            1 2LC401   0.0000
    29 C30        -17.9940   -32.4620    -6.9110 C.ar         1 2LC401   0.0000
    30 H1         -18.7702   -38.6933    -9.0516 H            1 2LC401   0.0000
    31 H2         -18.9667   -37.7595   -10.3768 H            1 2LC401   0.0000
    32 H3         -17.4858   -37.9293    -9.7099 H            1 2LC401   0.0000
    33 H4         -18.0239   -35.1010    -9.8333 H            1 2LC401   0.0000
    34 H5         -19.6210   -37.4020    -4.3212 H            1 2LC401   0.0000
    35 H6         -21.1454   -37.8044    -4.7466 H            1 2LC401   0.0000
    36 H7         -22.4522   -34.5496    -5.2221 H            1 2LC401   0.0000
    37 H8         -22.2996   -35.7804    -6.2844 H            1 2LC401   0.0000
    38 H9         -22.8465   -36.0693    -4.7731 H            1 2LC401   0.0000
    39 H10        -20.9990   -34.3582    -3.3098 H            1 2LC401   0.0000
    40 H11        -21.3388   -35.8856    -2.8428 H            1 2LC401   0.0000
    41 H12        -19.7869   -35.4205    -3.0474 H            1 2LC401   0.0000
    42 H13        -20.3806   -33.9333    -5.7485 H            1 2LC401   0.0000
    43 H14        -19.0858   -34.5817    -4.9938 H            1 2LC401   0.0000
    44 H15        -19.8208   -32.8822    -9.6663 H            1 2LC401   0.0000
    45 H16        -19.8379   -29.2156    -9.8458 H            1 2LC401   0.0000
    46 H17        -20.3741   -31.5964   -11.3893 H            1 2LC401   0.0000
    47 H18        -22.4196   -29.8697   -10.2419 H            1 2LC401   0.0000
    48 H19        -22.5186   -31.4820   -10.4809 H            1 2LC401   0.0000
    49 H20        -23.6413   -30.0137   -12.2740 H            1 2LC401   0.0000
    50 H21        -22.6882   -31.2169   -12.8312 H            1 2LC401   0.0000
    51 H22        -19.9048   -30.1116   -13.0148 H            1 2LC401   0.0000
    52 H23        -20.0287   -28.8531   -11.9816 H            1 2LC401   0.0000
    53 H24        -17.4383   -27.1927    -7.3316 H            1 2LC401   0.0000
    54 H25        -16.6082   -28.7027    -7.1566 H            1 2LC401   0.0000
    55 H26        -17.5212   -32.9842    -6.2012 H            1 2LC401   0.0000
@<TRIPOS>BOND
     1    1    2       1
     2    2    3       2
     3    2    6       1
     4    3    4       1
     5    4    5       1
     6    4   14       1
     7    5    6       2
     8    5   13       1
     9    6    7       1
    10    7    8       2
    11    7    9       1
    12    9   10       1
    13   10   11       1
    14   10   12       1
    15   10   13       1
    16   14   15      ar
    17   14   29      ar
    18   15   16      ar
    19   16   17       1
    20   16   23      ar
    21   17   18       1
    22   18   19       1
    23   18   22       1
    24   19   20       1
    25   20   21       1
    26   21   22       1
    27   23   24       1
    28   23   27      ar
    29   24   25      am
    30   24   26       2
    31   27   28       1
    32   27   29      ar
    33    1   30       1
    34    1   31       1
    35    1   32       1
    36    3   33       1
    37    9   34       1
    38    9   35       1
    39   11   36       1
    40   11   37       1
    41   11   38       1
    42   12   39       1
    43   12   40       1
    44   12   41       1
    45   13   42       1
    46   13   43       1
    47   15   44       1
    48   17   45       1
    49   18   46       1
    50   19   47       1
    51   19   48       1
    52   20   49       1
    53   20   50       1
    54   22   51       1
    55   22   52       1
    56   25   53       1
    57   25   54       1
    58   29   55       1
@<TRIPOS>SUBSTRUCTURE
     1 2LC401      1 GROUP             4 A     2LC     0 **** 2LC A 401
