@<TRIPOS>MOLECULE
2g8y_NAD_2_ligand
   70    74     1     0     0
SMALL
NO_CHARGES


@<TRIPOS>ATOM
     1 PA          83.9290    52.0830     9.2170 P.3          1 NAD1002   0.0000
     2 O1A         83.8700    53.4970     8.7630 O.co2        1 NAD1002   0.0000
     3 O2A         84.9080    51.1910     8.5670 O.co2        1 NAD1002  -1.0000
     4 O5B         82.4500    51.4520     9.0690 O.3          1 NAD1002   0.0000
     5 C5B         82.2720    50.0620     9.1980 C.3          1 NAD1002   0.0000
     6 C4B         80.7840    49.7540     9.0780 C.3          1 NAD1002   0.0000
     7 O4B         80.2690    50.2670     7.8550 O.3          1 NAD1002   0.0000
     8 C3B         80.5890    48.2320     9.0370 C.3          1 NAD1002   0.0000
     9 O3B         79.3070    47.9360     9.5740 O.3          1 NAD1002   0.0000
    10 C2B         80.6910    47.9360     7.5440 C.3          1 NAD1002   0.0000
    11 O2B         80.1450    46.7030     7.1130 O.3          1 NAD1002   0.0000
    12 C1B         79.9660    49.1650     7.0010 C.3          1 NAD1002   0.0000
    13 N9A         80.3030    49.4710     5.5910 N.pl3        1 NAD1002   0.0000
    14 C8A         81.5350    49.6850     5.0080 C.2          1 NAD1002   0.0000
    15 N7A         81.3300    49.9430     3.6980 N.2          1 NAD1002   0.0000
    16 C5A         79.9990    49.8960     3.4390 C.ar         1 NAD1002   0.0000
    17 C6A         79.2470    50.0950     2.2730 C.ar         1 NAD1002   0.0000
    18 N6A         79.8400    50.5000     1.1380 N.pl3        1 NAD1002   0.0000
    19 N1A         77.8710    49.9740     2.3550 N.ar         1 NAD1002   0.0000
    20 C2A         77.2460    49.6590     3.5580 C.ar         1 NAD1002   0.0000
    21 N3A         77.9740    49.4770     4.7150 N.ar         1 NAD1002   0.0000
    22 C4A         79.3350    49.5930     4.6320 C.ar         1 NAD1002   0.0000
    23 O3          84.1420    51.9510    10.8270 O.3          1 NAD1002   0.0000
    24 PN          84.9340    52.9420    11.8470 P.3          1 NAD1002   0.0000
    25 O1N         84.0330    53.9820    12.3800 O.co2        1 NAD1002   0.0000
    26 O2N         86.1730    53.4320    11.2120 O.co2        1 NAD1002  -1.0000
    27 O5D         85.3160    51.8190    12.9360 O.3          1 NAD1002   0.0000
    28 C5D         86.1780    50.7520    12.5900 C.3          1 NAD1002   0.0000
    29 C4D         86.2100    49.6780    13.6880 C.3          1 NAD1002   0.0000
    30 O4D         86.7580    50.2270    14.8720 O.3          1 NAD1002   0.0000
    31 C3D         84.8570    49.0840    14.0900 C.3          1 NAD1002   0.0000
    32 O3D         85.0080    47.6650    14.0640 O.3          1 NAD1002   0.0000
    33 C2D         84.5820    49.6180    15.4970 C.3          1 NAD1002   0.0000
    34 O2D         84.0120    48.6570    16.3380 O.3          1 NAD1002   0.0000
    35 C1D         85.9960    49.7930    15.9990 C.3          1 NAD1002   0.0000
    36 N1N         86.1280    50.7380    17.1130 N.ar         1 NAD1002   1.0000
    37 C2N         86.3670    50.2500    18.3820 C.ar         1 NAD1002   0.0000
    38 C3N         86.5030    51.1680    19.4360 C.ar         1 NAD1002   0.0000
    39 C7N         86.7050    50.6940    20.8470 C.2          1 NAD1002   0.0000
    40 O7N         86.7690    51.6117    21.8988 O.2          1 NAD1002   0.0000
    41 N7N         86.8301    49.4160    21.0707 N.am         1 NAD1002   0.0000
    42 C4N         86.4030    52.5420    19.1840 C.ar         1 NAD1002   0.0000
    43 C5N         86.1530    53.0080    17.8890 C.ar         1 NAD1002   0.0000
    44 C6N         86.0390    52.0920    16.8540 C.ar         1 NAD1002   0.0000
    45 H5B1        82.6085    49.7598    10.0899 H            1 NAD1002   0.0000
    46 H5B2        82.7742    49.5886     8.4743 H            1 NAD1002   0.0000
    47 H4B         80.2870    50.1449     9.8527 H            1 NAD1002   0.0000
    48 H3B         81.3100    47.7629     9.5470 H            1 NAD1002   0.0000
    49 H5          79.1586    46.9472     9.5569 H            1 NAD1002   0.0000
    50 H2B         81.6517    47.9787     7.2698 H            1 NAD1002   0.0000
    51 H7          80.8499    45.9947     7.1513 H            1 NAD1002   0.0000
    52 H1B         78.9823    48.9931     7.0542 H            1 NAD1002   0.0000
    53 H8A         82.4204    49.6546     5.4718 H            1 NAD1002   0.0000
    54 H6A1        79.2950    50.6392     0.3112 H            1 NAD1002   0.0000
    55 H6A2        80.8266    50.6623     1.1197 H            1 NAD1002   0.0000
    56 H2A         76.2510    49.5629     3.5838 H            1 NAD1002   0.0000
    57 H5D1        87.1023    51.1102    12.4583 H            1 NAD1002   0.0000
    58 H5D2        85.8568    50.3373    11.7386 H            1 NAD1002   0.0000
    59 H4D         86.8029    48.9329    13.3826 H            1 NAD1002   0.0000
    60 H3D         84.1409    49.3748    13.4555 H            1 NAD1002   0.0000
    61 H17         84.1436    47.2330    14.3215 H            1 NAD1002   0.0000
    62 H2D         84.0678    50.4757    15.4891 H            1 NAD1002   0.0000
    63 H19         83.1422    48.3499    15.9519 H            1 NAD1002   0.0000
    64 H1D         86.3421    48.9023    16.2939 H            1 NAD1002   0.0000
    65 H2N         86.4415    49.2665    18.5468 H            1 NAD1002   0.0000
    66 H7N1        86.9817    49.0839    22.0017 H            1 NAD1002   0.0000
    67 H7N2        86.7743    48.7677    20.3114 H            1 NAD1002   0.0000
    68 H4N         86.5110    53.1940    19.9345 H            1 NAD1002   0.0000
    69 H5N         86.0578    53.9876    17.7121 H            1 NAD1002   0.0000
    70 H6N         85.8921    52.4123    15.9182 H            1 NAD1002   0.0000
@<TRIPOS>BOND
     1    1    2      ar
     2    1    3      ar
     3    1    4       1
     4    1   23       1
     5    4    5       1
     6    5    6       1
     7    6    7       1
     8    6    8       1
     9    7   12       1
    10    8    9       1
    11    8   10       1
    12   10   11       1
    13   10   12       1
    14   12   13       1
    15   13   14       1
    16   13   22       1
    17   14   15       2
    18   15   16       1
    19   16   17      ar
    20   16   22      ar
    21   17   18       1
    22   17   19      ar
    23   19   20      ar
    24   20   21      ar
    25   21   22      ar
    26   23   24       1
    27   24   25      ar
    28   24   26      ar
    29   24   27       1
    30   27   28       1
    31   28   29       1
    32   29   30       1
    33   29   31       1
    34   30   35       1
    35   31   32       1
    36   31   33       1
    37   33   34       1
    38   33   35       1
    39   35   36       1
    40   36   37      ar
    41   36   44      ar
    42   37   38      ar
    43   38   39       1
    44   38   42      ar
    45   39   40       2
    46   39   41      am
    47   42   43      ar
    48   43   44      ar
    49   44   70       1
    50    5   45       1
    51    5   46       1
    52    6   47       1
    53    8   48       1
    54    9   49       1
    55   10   50       1
    56   11   51       1
    57   12   52       1
    58   14   53       1
    59   18   54       1
    60   18   55       1
    61   20   56       1
    62   43   69       1
    63   28   57       1
    64   28   58       1
    65   29   59       1
    66   31   60       1
    67   32   61       1
    68   33   62       1
    69   34   63       1
    70   35   64       1
    71   37   65       1
    72   41   66       1
    73   41   67       1
    74   42   68       1
@<TRIPOS>SUBSTRUCTURE
     1 NAD1002     1 GROUP             4 B     NAD     0 **** NAD B1002
