@<TRIPOS>MOLECULE
2vnj_NAP_2_ligand
   73    77     1     0     0
SMALL
NO_CHARGES


@<TRIPOS>ATOM
     1 PA          27.0070    21.7160     9.7030 P.3          1 NAP274   0.0000
     2 O1A         26.8880    20.6920     8.6010 O.co2        1 NAP274   0.0000
     3 O2A         27.6950    20.9430    10.9240 O.co2        1 NAP274  -1.0000
     4 O5B         25.4090    21.6340    10.3250 O.3          1 NAP274   0.0000
     5 C5B         24.4480    22.5530     9.9590 C.3          1 NAP274   0.0000
     6 C4B         24.3630    23.7640    10.9350 C.3          1 NAP274   0.0000
     7 O4B         25.0520    23.7720    12.2140 O.3          1 NAP274   0.0000
     8 C3B         24.6500    25.0940    10.2330 C.3          1 NAP274   0.0000
     9 O3B         23.5160    25.9490    10.5120 O.3          1 NAP274   0.0000
    10 C2B         25.8760    25.6190    10.9290 C.3          1 NAP274   0.0000
    11 O2B         25.7600    27.0080    10.9390 O.3          1 NAP274   0.0000
    12 C1B         25.6710    25.0270    12.3300 C.3          1 NAP274   0.0000
    13 N9A         26.9770    24.9650    12.9870 N.pl3        1 NAP274   0.0000
    14 C8A         28.1980    24.5360    12.4330 C.2          1 NAP274   0.0000
    15 N7A         29.1390    24.7340    13.3710 N.2          1 NAP274   0.0000
    16 C5A         28.5820    25.1880    14.5200 C.ar         1 NAP274   0.0000
    17 C6A         29.1110    25.4640    15.7950 C.ar         1 NAP274   0.0000
    18 N6A         30.4130    25.2650    15.9760 N.pl3        1 NAP274   0.0000
    19 N1A         28.2580    25.9640    16.7820 N.ar         1 NAP274   0.0000
    20 C2A         26.9130    26.1240    16.4780 C.ar         1 NAP274   0.0000
    21 N3A         26.3900    25.8410    15.2540 N.ar         1 NAP274   0.0000
    22 C4A         27.1930    25.3750    14.2970 C.ar         1 NAP274   0.0000
    23 O3          27.4850    23.3070     9.1970 O.3          1 NAP274   0.0000
    24 PN          28.9190    23.6700     8.3270 P.3          1 NAP274   0.0000
    25 O1N         29.6590    22.4090     8.6430 O.co2        1 NAP274   0.0000
    26 O2N         29.7230    24.9100     8.6360 O.co2        1 NAP274  -1.0000
    27 O5D         28.1980    23.6760     6.8320 O.3          1 NAP274   0.0000
    28 C5D         28.6770    23.2830     5.5600 C.3          1 NAP274   0.0000
    29 C4D         29.5250    24.4760     5.1630 C.3          1 NAP274   0.0000
    30 O4D         30.8500    24.4650     5.7460 O.3          1 NAP274   0.0000
    31 C3D         29.5800    24.6190     3.6550 C.3          1 NAP274   0.0000
    32 O3D         28.8900    25.8150     3.2370 O.3          1 NAP274   0.0000
    33 C2D         31.0560    24.7030     3.2540 C.3          1 NAP274   0.0000
    34 O2D         31.1760    25.8170     2.3080 O.3          1 NAP274   0.0000
    35 C1D         31.7950    24.7410     4.6480 C.3          1 NAP274   0.0000
    36 N1N         32.8970    23.6800     4.6700 N.ar         1 NAP274   1.0000
    37 C2N         34.2370    24.1600     4.6850 C.ar         1 NAP274   0.0000
    38 C3N         35.3130    23.2590     4.6400 C.ar         1 NAP274   0.0000
    39 C7N         36.7870    23.7150     4.7040 C.2          1 NAP274   0.0000
    40 O7N         37.8648    22.7128     4.7146 O.2          1 NAP274   0.0000
    41 N7N         37.0025    25.0683     4.7768 N.am         1 NAP274   0.0000
    42 C4N         34.9720    21.8620     4.5820 C.ar         1 NAP274   0.0000
    43 C5N         33.5920    21.4200     4.5340 C.ar         1 NAP274   0.0000
    44 C6N         32.5200    22.3340     4.5720 C.ar         1 NAP274   0.0000
    45 P2B         26.7270    27.9220    10.1490 P.3          1 NAP274   0.0000
    46 O1X         27.8060    26.9910    10.1300 O.co2        1 NAP274   0.0000
    47 O2X         26.2570    27.8590     8.6920 O.co2        1 NAP274  -1.0000
    48 O3X         27.0360    29.3860    10.6530 O.co2        1 NAP274  -1.0000
    49 H5B1        23.5592    22.0950     9.9409 H            1 NAP274   0.0000
    50 H5B2        24.6655    22.8949     9.0448 H            1 NAP274   0.0000
    51 H4B         23.3942    23.8175    11.1770 H            1 NAP274   0.0000
    52 H3B         24.7979    24.9756     9.2511 H            1 NAP274   0.0000
    53 H5          23.6525    26.8374    10.0737 H            1 NAP274   0.0000
    54 H2B         26.7241    25.3074    10.5005 H            1 NAP274   0.0000
    55 H1B         25.0741    25.6348    12.8537 H            1 NAP274   0.0000
    56 H8A         28.3378    24.1571    11.5182 H            1 NAP274   0.0000
    57 H6A1        30.8278    25.4491    16.8671 H            1 NAP274   0.0000
    58 H6A2        30.9775    24.9312    15.2211 H            1 NAP274   0.0000
    59 H2A         26.3000    26.4630    17.1916 H            1 NAP274   0.0000
    60 H5D1        27.9251    23.1408     4.9162 H            1 NAP274   0.0000
    61 H5D2        29.2267    22.4498     5.6198 H            1 NAP274   0.0000
    62 H4D         29.0615    25.2897     5.5138 H            1 NAP274   0.0000
    63 H3D         29.1593    23.8200     3.2254 H            1 NAP274   0.0000
    64 H16         28.1380    25.5694     2.6253 H            1 NAP274   0.0000
    65 H2D         31.3069    23.8571     2.7834 H            1 NAP274   0.0000
    66 H18         30.2775    26.2328     2.1669 H            1 NAP274   0.0000
    67 H1D         32.2028    25.6442     4.7817 H            1 NAP274   0.0000
    68 H2N         34.4129    25.1435     4.7278 H            1 NAP274   0.0000
    69 H7N1        37.9338    25.4223     4.8625 H            1 NAP274   0.0000
    70 H7N2        36.2283    25.7003     4.7442 H            1 NAP274   0.0000
    71 H4N         35.7037    21.1805     4.5746 H            1 NAP274   0.0000
    72 H5N         33.3958    20.4414     4.4723 H            1 NAP274   0.0000
    73 H6N         31.5637    22.0442     4.5321 H            1 NAP274   0.0000
@<TRIPOS>BOND
     1    1    2      ar
     2    1    3      ar
     3    1    4       1
     4    1   23       1
     5    4    5       1
     6    5    6       1
     7    6    7       1
     8    6    8       1
     9    7   12       1
    10    8    9       1
    11    8   10       1
    12   10   11       1
    13   10   12       1
    14   11   45       1
    15   12   13       1
    16   13   14       1
    17   13   22       1
    18   14   15       2
    19   15   16       1
    20   16   17      ar
    21   16   22      ar
    22   17   18       1
    23   17   19      ar
    24   19   20      ar
    25   20   21      ar
    26   21   22      ar
    27   23   24       1
    28   24   25      ar
    29   24   26      ar
    30   24   27       1
    31   27   28       1
    32   28   29       1
    33   29   30       1
    34   29   31       1
    35   30   35       1
    36   31   32       1
    37   31   33       1
    38   33   34       1
    39   33   35       1
    40   35   36       1
    41   36   37      ar
    42   36   44      ar
    43   37   38      ar
    44   38   39       1
    45   38   42      ar
    46   39   40       2
    47   39   41      am
    48   42   43      ar
    49   43   44      ar
    50   45   46      ar
    51   45   47      ar
    52   45   48      ar
    53   43   72       1
    54    5   49       1
    55    5   50       1
    56    6   51       1
    57    8   52       1
    58    9   53       1
    59   10   54       1
    60   12   55       1
    61   14   56       1
    62   18   57       1
    63   18   58       1
    64   20   59       1
    65   44   73       1
    66   28   60       1
    67   28   61       1
    68   29   62       1
    69   31   63       1
    70   32   64       1
    71   33   65       1
    72   34   66       1
    73   35   67       1
    74   37   68       1
    75   41   69       1
    76   41   70       1
    77   42   71       1
@<TRIPOS>SUBSTRUCTURE
     1 NAP274      1 GROUP             4 A     NAP     0 **** NAP A 274
