@<TRIPOS>MOLECULE
3kjr_NAP_2_ligand
   73    77     1     0     0
SMALL
NO_CHARGES


@<TRIPOS>ATOM
     1 PA          49.8340   -23.8310    31.7200 P.3          1 NAP512   0.0000
     2 O1A         49.7070   -22.3840    31.2920 O.co2        1 NAP512   0.0000
     3 O2A         48.7190   -24.8250    31.5080 O.co2        1 NAP512  -1.0000
     4 O5B         51.0880   -24.4410    30.9210 O.3          1 NAP512   0.0000
     5 C5B         52.4140   -24.0010    31.1960 C.3          1 NAP512   0.0000
     6 C4B         53.3450   -24.5380    30.1250 C.3          1 NAP512   0.0000
     7 O4B         52.7480   -24.4580    28.8250 O.3          1 NAP512   0.0000
     8 C3B         54.5940   -23.6760    30.0700 C.3          1 NAP512   0.0000
     9 O3B         55.6080   -24.2120    30.9210 O.3          1 NAP512   0.0000
    10 C2B         54.9430   -23.5520    28.5880 C.3          1 NAP512   0.0000
    11 O2B         55.7350   -24.5570    27.9360 O.3          1 NAP512   0.0000
    12 C1B         53.5890   -23.7170    27.9180 C.3          1 NAP512   0.0000
    13 N9A         52.9780   -22.3890    27.6460 N.pl3        1 NAP512   0.0000
    14 C8A         51.9300   -21.9000    28.3250 C.2          1 NAP512   0.0000
    15 N7A         51.6100   -20.6830    27.8470 N.2          1 NAP512   0.0000
    16 C5A         52.4710   -20.4100    26.8530 C.ar         1 NAP512   0.0000
    17 C6A         52.6000   -19.3130    26.0240 C.ar         1 NAP512   0.0000
    18 N6A         51.7320   -18.2820    26.1850 N.pl3        1 NAP512   0.0000
    19 N1A         53.5770   -19.3030    25.0810 N.ar         1 NAP512   0.0000
    20 C2A         54.4180   -20.3510    24.9580 C.ar         1 NAP512   0.0000
    21 N3A         54.3080   -21.4320    25.7600 N.ar         1 NAP512   0.0000
    22 C4A         53.3370   -21.4850    26.7180 C.ar         1 NAP512   0.0000
    23 O3          50.3990   -23.9310    33.2320 O.3          1 NAP512   0.0000
    24 PN          49.7820   -23.2880    34.5770 P.3          1 NAP512   0.0000
    25 O1N         49.6880   -21.7830    34.5000 O.co2        1 NAP512   0.0000
    26 O2N         50.5620   -23.9040    35.7190 O.co2        1 NAP512  -1.0000
    27 O5D         48.2720   -23.8510    34.6140 O.3          1 NAP512   0.0000
    28 C5D         47.9650   -25.1570    35.0780 C.3          1 NAP512   0.0000
    29 C4D         47.1270   -25.0460    36.3470 C.3          1 NAP512   0.0000
    30 O4D         45.9560   -24.2560    36.1280 O.3          1 NAP512   0.0000
    31 C3D         46.6390   -26.4140    36.7790 C.3          1 NAP512   0.0000
    32 O3D         46.6210   -26.4150    38.2060 O.3          1 NAP512   0.0000
    33 C2D         45.2260   -26.5120    36.2540 C.3          1 NAP512   0.0000
    34 O2D         44.4490   -27.3750    37.0860 O.3          1 NAP512   0.0000
    35 C1D         44.7790   -25.0580    36.3420 C.3          1 NAP512   0.0000
    36 N1N         43.7200   -24.6740    35.4070 N.ar         1 NAP512   1.0000
    37 C2N         42.5810   -24.1860    35.9350 C.ar         1 NAP512   0.0000
    38 C3N         41.5130   -23.7790    35.1370 C.ar         1 NAP512   0.0000
    39 C7N         40.2560   -23.2390    35.7740 C.2          1 NAP512   0.0000
    40 O7N         39.4880   -22.6330    35.0510 O.2          1 NAP512   0.0000
    41 N7N         40.0110   -23.4130    37.0860 N.am         1 NAP512   0.0000
    42 C4N         41.6440   -23.8570    33.7450 C.ar         1 NAP512   0.0000
    43 C5N         42.8380   -24.3610    33.2160 C.ar         1 NAP512   0.0000
    44 C6N         43.8750   -24.7550    34.0700 C.ar         1 NAP512   0.0000
    45 P2B         56.9940   -25.4820    28.3710 P.3          1 NAP512   0.0000
    46 O1X         58.0980   -24.9660    27.4850 O.co2        1 NAP512   0.0000
    47 O2X         57.2790   -25.2770    29.8360 O.co2        1 NAP512  -1.0000
    48 O3X         56.5670   -26.8850    28.0330 O.co2        1 NAP512  -1.0000
    49 H5B1        52.7013   -24.3414    32.0913 H            1 NAP512   0.0000
    50 H5B2        52.4426   -23.0014    31.1946 H            1 NAP512   0.0000
    51 H4B         53.5919   -25.4851    30.3301 H            1 NAP512   0.0000
    52 H3B         54.3561   -22.7656    30.4085 H            1 NAP512   0.0000
    53 H5          56.1713   -24.8561    30.4035 H            1 NAP512   0.0000
    54 H2B         55.3137   -22.6433    28.3963 H            1 NAP512   0.0000
    55 H1B         53.6937   -24.2237    27.0622 H            1 NAP512   0.0000
    56 H8A         51.4583   -22.3680    29.0723 H            1 NAP512   0.0000
    57 H6A1        51.8009   -17.4743    25.5994 H            1 NAP512   0.0000
    58 H6A2        51.0236   -18.3301    26.8892 H            1 NAP512   0.0000
    59 H2A         55.1349   -20.3268    24.2612 H            1 NAP512   0.0000
    60 H5D1        48.8118   -25.6502    35.2770 H            1 NAP512   0.0000
    61 H5D2        47.4492   -25.6496    34.3771 H            1 NAP512   0.0000
    62 H4D         47.6754   -24.6387    37.0773 H            1 NAP512   0.0000
    63 H3D         47.2187   -27.1439    36.4168 H            1 NAP512   0.0000
    64 H16         46.3032   -27.3043    38.5347 H            1 NAP512   0.0000
    65 H2D         45.2193   -26.8301    35.3060 H            1 NAP512   0.0000
    66 H18         43.5167   -27.4318    36.7287 H            1 NAP512   0.0000
    67 H1D         44.4509   -24.8884    37.2713 H            1 NAP512   0.0000
    68 H2N         42.4991   -24.1135    36.9290 H            1 NAP512   0.0000
    69 H7N1        39.1726   -23.0481    37.4908 H            1 NAP512   0.0000
    70 H7N2        40.6674   -23.9072    37.6560 H            1 NAP512   0.0000
    71 H4N         40.9025   -23.5598    33.1434 H            1 NAP512   0.0000
    72 H5N         42.9505   -24.4398    32.2255 H            1 NAP512   0.0000
    73 H6N         44.7331   -25.0975    33.6874 H            1 NAP512   0.0000
@<TRIPOS>BOND
     1    1    2      ar
     2    1    3      ar
     3    1    4       1
     4    1   23       1
     5    4    5       1
     6    5    6       1
     7    6    7       1
     8    6    8       1
     9    7   12       1
    10    8    9       1
    11    8   10       1
    12   10   11       1
    13   10   12       1
    14   11   45       1
    15   12   13       1
    16   13   14       1
    17   13   22       1
    18   14   15       2
    19   15   16       1
    20   16   17      ar
    21   16   22      ar
    22   17   18       1
    23   17   19      ar
    24   19   20      ar
    25   20   21      ar
    26   21   22      ar
    27   23   24       1
    28   24   25      ar
    29   24   26      ar
    30   24   27       1
    31   27   28       1
    32   28   29       1
    33   29   30       1
    34   29   31       1
    35   30   35       1
    36   31   32       1
    37   31   33       1
    38   33   34       1
    39   33   35       1
    40   35   36       1
    41   36   37      ar
    42   36   44      ar
    43   37   38      ar
    44   38   39       1
    45   38   42      ar
    46   39   40       2
    47   39   41      am
    48   42   43      ar
    49   43   44      ar
    50   45   46      ar
    51   45   47      ar
    52   45   48      ar
    53   43   72       1
    54    5   49       1
    55    5   50       1
    56    6   51       1
    57    8   52       1
    58    9   53       1
    59   10   54       1
    60   12   55       1
    61   14   56       1
    62   18   57       1
    63   18   58       1
    64   20   59       1
    65   44   73       1
    66   28   60       1
    67   28   61       1
    68   29   62       1
    69   31   63       1
    70   32   64       1
    71   33   65       1
    72   34   66       1
    73   35   67       1
    74   37   68       1
    75   41   69       1
    76   41   70       1
    77   42   71       1
@<TRIPOS>SUBSTRUCTURE
     1 NAP512      1 GROUP             4 B     NAP     0 **** NAP B 512
