@<TRIPOS>MOLECULE
1vrl_ADE_1_ligand
   16    17     1     0     0
SMALL
NO_CHARGES


@<TRIPOS>ATOM
     1 N9          10.4500     0.8840     6.3690 N.2          1 ADE500   1.0000
     2 C8          11.4600     1.6670     5.8620 C.2          1 ADE500   0.0000
     3 N7          11.0530     2.5920     5.0300 N.pl3        1 ADE500   0.0000
     4 C5           9.6770     2.4110     4.9800 C.ar         1 ADE500   0.0000
     5 C6           8.6620     3.0860     4.2830 C.ar         1 ADE500   0.0000
     6 N6           8.8950     4.1130     3.4620 N.pl3        1 ADE500   0.0000
     7 N1           7.3860     2.6640     4.4660 N.ar         1 ADE500   0.0000
     8 C2           7.1620     1.6290     5.2950 C.ar         1 ADE500   0.0000
     9 N3           8.0320     0.9140     6.0030 N.ar         1 ADE500   0.0000
    10 C4           9.2880     1.3610     5.8030 C.ar         1 ADE500   0.0000
    11 H1          10.5401     0.1257     7.0146 H            1 ADE500   0.0000
    12 H2          12.4212     1.5409     6.1073 H            1 ADE500   0.0000
    13 H3           8.1342     4.5583     2.9899 H            1 ADE500   0.0000
    14 H4           9.8303     4.4368     3.3193 H            1 ADE500   0.0000
    15 H5           6.2044     1.3582     5.3932 H            1 ADE500   0.0000
    16 H6          11.6041     3.2704     4.5440 H            1 ADE500   0.0000
@<TRIPOS>BOND
     1    1    2       2
     2    1   10       1
     3    2    3       1
     4    3    4       1
     5    4    5      ar
     6    4   10      ar
     7    5    6       1
     8    5    7      ar
     9    7    8      ar
    10    8    9      ar
    11    9   10      ar
    12    1   11       1
    13    2   12       1
    14    6   13       1
    15    6   14       1
    16    8   15       1
    17    3   16       1
@<TRIPOS>SUBSTRUCTURE
     1 ADE500      1 GROUP             4 A     ADE     0 **** ADE A 500
