@<TRIPOS>MOLECULE
4gl4_NAI_1_ligand
   71    75     1     0     0
SMALL
NO_CHARGES


@<TRIPOS>ATOM
     1 PA          68.4660    20.6320    43.8730 P.3          1 NAI403   0.0000
     2 O1A         68.3640    21.6570    42.7860 O.co2        1 NAI403   0.0000
     3 O2A         69.6020    20.6670    44.8470 O.co2        1 NAI403  -1.0000
     4 O5B         68.4800    19.2230    43.1480 O.3          1 NAI403   0.0000
     5 C5B         67.7930    19.0500    41.9130 C.3          1 NAI403   0.0000
     6 C4B         68.4280    17.8820    41.2070 C.3          1 NAI403   0.0000
     7 O4B         67.5910    17.4020    40.1330 O.3          1 NAI403   0.0000
     8 C3B         69.7730    18.1980    40.5920 C.3          1 NAI403   0.0000
     9 O3B         70.6880    17.1810    41.0710 O.3          1 NAI403   0.0000
    10 C2B         69.5880    18.0900    39.0790 C.3          1 NAI403   0.0000
    11 O2B         70.6920    17.4790    38.3670 O.3          1 NAI403   0.0000
    12 C1B         68.4280    17.1100    39.0050 C.3          1 NAI403   0.0000
    13 N9A         67.6300    17.2200    37.7820 N.pl3        1 NAI403   0.0000
    14 C8A         67.1560    18.3640    37.2000 C.2          1 NAI403   0.0000
    15 N7A         66.4200    18.0460    36.1290 N.2          1 NAI403   0.0000
    16 C5A         66.4330    16.6960    36.0280 C.ar         1 NAI403   0.0000
    17 C6A         65.8390    15.7300    35.1260 C.ar         1 NAI403   0.0000
    18 N6A         65.1090    16.2210    34.1080 N.pl3        1 NAI403   0.0000
    19 N1A         66.0010    14.4150    35.3730 N.ar         1 NAI403   0.0000
    20 C2A         66.7340    13.9790    36.4280 C.ar         1 NAI403   0.0000
    21 N3A         67.3270    14.8130    37.2930 N.ar         1 NAI403   0.0000
    22 C4A         67.1920    16.1480    37.1360 C.ar         1 NAI403   0.0000
    23 O3          67.1050    20.7440    44.6880 O.3          1 NAI403   0.0000
    24 PN          66.7460    20.2710    46.1940 P.3          1 NAI403   0.0000
    25 O1N         67.1020    21.3830    47.1500 O.co2        1 NAI403   0.0000
    26 O2N         67.2760    18.8780    46.2950 O.co2        1 NAI403  -1.0000
    27 O5D         65.1510    20.3230    45.9970 O.3          1 NAI403   0.0000
    28 C5D         64.4850    19.4250    45.0980 C.3          1 NAI403   0.0000
    29 C4D         62.9670    19.6770    45.0410 C.3          1 NAI403   0.0000
    30 O4D         62.3670    19.4500    46.3330 O.3          1 NAI403   0.0000
    31 C3D         62.6150    21.1210    44.6470 C.3          1 NAI403   0.0000
    32 O3D         61.4680    21.1800    43.7950 O.3          1 NAI403   0.0000
    33 C2D         62.2220    21.7580    45.9370 C.3          1 NAI403   0.0000
    34 O2D         61.3040    22.8370    45.8190 O.3          1 NAI403   0.0000
    35 C1D         61.4980    20.5840    46.5780 C.3          1 NAI403   0.0000
    36 N1N         61.2570    20.6900    48.0030 N.pl3        1 NAI403   0.0000
    37 C2N         60.0680    20.2570    48.4270 C.2          1 NAI403   0.0000
    38 C3N         59.6960    20.2550    49.7710 C.2          1 NAI403   0.0000
    39 C7N         58.3420    19.7150    50.1500 C.2          1 NAI403   0.0000
    40 O7N         57.8950    19.9290    51.2600 O.2          1 NAI403   0.0000
    41 N7N         57.6730    18.9180    49.2790 N.am         1 NAI403   0.0000
    42 C4N         60.6320    20.6950    50.7290 C.3          1 NAI403   0.0000
    43 C5N         61.8970    21.0790    50.2810 C.2          1 NAI403   0.0000
    44 C6N         62.1970    21.0970    48.9090 C.2          1 NAI403   0.0000
    45 H5B1        67.8794    19.8753    41.3549 H            1 NAI403   0.0000
    46 H5B2        66.8256    18.8623    42.0830 H            1 NAI403   0.0000
    47 H4B         68.5492    17.1414    41.8680 H            1 NAI403   0.0000
    48 H3B         70.0824    19.1125    40.8527 H            1 NAI403   0.0000
    49 H5          70.3646    16.2795    40.7834 H            1 NAI403   0.0000
    50 H2B         69.3429    18.9733    38.6794 H            1 NAI403   0.0000
    51 H7          70.8321    16.5482    38.7047 H            1 NAI403   0.0000
    52 H1B         68.7786    16.1771    39.0872 H            1 NAI403   0.0000
    53 H8A         67.3323    19.2933    37.5247 H            1 NAI403   0.0000
    54 H6A1        64.6770    15.5976    33.4563 H            1 NAI403   0.0000
    55 H6A2        64.9984    17.2093    34.0031 H            1 NAI403   0.0000
    56 H2A         66.8360    12.9938    36.5659 H            1 NAI403   0.0000
    57 H5D1        64.6442    18.4864    45.4040 H            1 NAI403   0.0000
    58 H5D2        64.8660    19.5459    44.1814 H            1 NAI403   0.0000
    59 H4D         62.5580    19.0501    44.3779 H            1 NAI403   0.0000
    60 H3D         63.3982    21.5868    44.2352 H            1 NAI403   0.0000
    61 H17         61.2737    22.1331    43.5630 H            1 NAI403   0.0000
    62 H2D         63.0257    22.0227    46.4700 H            1 NAI403   0.0000
    63 H19         60.3689    22.4862    45.8702 H            1 NAI403   0.0000
    64 H1D         60.6276    20.4384    46.1076 H            1 NAI403   0.0000
    65 H2N         59.4142    19.9186    47.7503 H            1 NAI403   0.0000
    66 H7N1        56.7736    18.5553    49.5228 H            1 NAI403   0.0000
    67 H7N2        58.0794    18.6934    48.3934 H            1 NAI403   0.0000
    68 H4N1        60.7617    19.9492    51.3824 H            1 NAI403   0.0000
    69 H4N2        60.2307    21.4823    51.1971 H            1 NAI403   0.0000
    70 H5N         62.5971    21.3441    50.9440 H            1 NAI403   0.0000
    71 H6N         63.0949    21.4064    48.5958 H            1 NAI403   0.0000
@<TRIPOS>BOND
     1    1    2      ar
     2    1    3      ar
     3    1    4       1
     4    1   23       1
     5    4    5       1
     6    5    6       1
     7    6    7       1
     8    6    8       1
     9    7   12       1
    10    8    9       1
    11    8   10       1
    12   10   11       1
    13   10   12       1
    14   12   13       1
    15   13   14       1
    16   13   22       1
    17   14   15       2
    18   15   16       1
    19   16   17      ar
    20   16   22      ar
    21   17   18       1
    22   17   19      ar
    23   19   20      ar
    24   20   21      ar
    25   21   22      ar
    26   23   24       1
    27   24   25      ar
    28   24   26      ar
    29   24   27       1
    30   27   28       1
    31   28   29       1
    32   29   30       1
    33   29   31       1
    34   30   35       1
    35   31   32       1
    36   31   33       1
    37   33   34       1
    38   33   35       1
    39   35   36       1
    40   36   37       1
    41   36   44       1
    42   37   38       2
    43   38   39       1
    44   38   42       1
    45   39   40       2
    46   39   41      am
    47   42   43       1
    48   43   44       2
    49   44   71       1
    50    5   45       1
    51    5   46       1
    52    6   47       1
    53    8   48       1
    54    9   49       1
    55   10   50       1
    56   11   51       1
    57   12   52       1
    58   14   53       1
    59   18   54       1
    60   18   55       1
    61   20   56       1
    62   43   70       1
    63   28   57       1
    64   28   58       1
    65   29   59       1
    66   31   60       1
    67   32   61       1
    68   33   62       1
    69   34   63       1
    70   35   64       1
    71   37   65       1
    72   41   66       1
    73   41   67       1
    74   42   68       1
    75   42   69       1
@<TRIPOS>SUBSTRUCTURE
     1 NAI403      1 GROUP             4 A     NAI     0 **** NAI A 403
