@<TRIPOS>MOLECULE
4f1y_CNI_1_ligand
   21    22     1     0     0
SMALL
NO_CHARGES


@<TRIPOS>ATOM
     1 C1          -3.6780    -7.1410    16.5890 C.2          1 CNI401   0.0000
     2 C2          -2.5400    -6.8020    15.6930 C.2          1 CNI401   0.0000
     3 C3          -2.7250    -9.2580    16.9270 C.ar         1 CNI401   0.0000
     4 C4          -1.6580    -8.9380    16.0860 C.ar         1 CNI401   0.0000
     5 C5          -2.7810   -10.5130    17.5320 C.ar         1 CNI401   0.0000
     6 C6          -0.6520    -9.8700    15.8600 C.ar         1 CNI401   0.0000
     7 C8          -0.7130   -11.1200    16.4640 C.ar         1 CNI401   0.0000
     8 O1          -4.5990    -6.3340    16.8170 O.2          1 CNI401   0.0000
     9 O2          -2.4430    -5.6930    15.1360 O.2          1 CNI401   0.0000
    10 N2          -1.5840    -7.7300    15.4890 N.pl3        1 CNI401   0.0000
    11 N1          -3.7060    -8.3600    17.1630 N.pl3        1 CNI401   0.0000
    12 C7          -1.7740   -11.4480    17.2980 C.ar         1 CNI401   0.0000
    13 N3          -1.8250   -12.7110    17.9160 N.2          1 CNI401   1.0000
    14 O3          -1.6900   -12.7960    19.1290 O.co2        1 CNI401   0.0000
    15 O5          -1.9870   -13.7260    17.2510 O.co2        1 CNI401  -1.0000
    16 C            0.2170   -11.9740    16.2470 C.1          1 CNI401   0.0000
    17 N17          0.9840   -12.8160    16.0290 N.1          1 CNI401   0.0000
    18 H1          -3.5450   -10.7427    18.1349 H            1 CNI401   0.0000
    19 H2           0.1163    -9.6409    15.2623 H            1 CNI401   0.0000
    20 H3          -0.8118    -7.5212    14.8890 H            1 CNI401   0.0000
    21 H4          -4.4621    -8.6026    17.7709 H            1 CNI401   0.0000
@<TRIPOS>BOND
     1    1    2       1
     2    1    8       2
     3    1   11       1
     4    2    9       2
     5    2   10       1
     6    3    4      ar
     7    3    5      ar
     8    3   11       1
     9    4    6      ar
    10    4   10       1
    11    5   12      ar
    12    6    7      ar
    13    7   12      ar
    14    7   16       1
    15   12   13       1
    16   13   14      ar
    17   13   15      ar
    18   16   17       3
    19    5   18       1
    20    6   19       1
    21   10   20       1
    22   11   21       1
@<TRIPOS>SUBSTRUCTURE
     1 CNI401      1 GROUP             4 A     CNI     0 **** CNI A 401
