@<TRIPOS>MOLECULE
2fut_H1S_2_ligand
   50    51     1     0     0
SMALL
NO_CHARGES


@<TRIPOS>ATOM
     1 C1           0.5830   104.8030    38.5130 C.3          1 H1S802   0.0000
     2 C2           1.5460   104.3550    37.4180 C.3          1 H1S802   0.0000
     3 O3          -0.3920   103.7780    38.6980 O.3          1 H1S802   0.0000
     4 C4           1.3010   105.0980    39.8250 C.3          1 H1S802   0.0000
     5 O5           2.6940   105.2090    37.3040 O.3          1 H1S802   0.0000
     6 C6           0.7820   104.3740    36.1020 C.3          1 H1S802   0.0000
     7 C7          -1.7210   104.1970    38.3840 C.3          1 H1S802   0.0000
     8 C8           2.5030   106.0090    39.5940 C.3          1 H1S802   0.0000
     9 O9           0.3810   105.7460    40.7070 O.3          1 H1S802   0.0000
    10 C10          3.4350   105.4510    38.5040 C.3          1 H1S802   0.0000
    11 O11          1.5900   104.9390    35.0850 O.3          1 H1S802   0.0000
    12 C12         -2.4120   103.1750    37.4730 C.3          1 H1S802   0.0000
    13 O13         -2.4410   104.3150    39.6080 O.3          1 H1S802   0.0000
    14 N14          3.2450   106.0040    40.8490 N.3          1 H1S802   0.0000
    15 O15          4.1220   104.2590    38.9110 O.3          1 H1S802   0.0000
    16 S16          1.8780   104.0330    33.7650 S.o2         1 H1S802   0.0000
    17 C17         -2.5820   101.8070    38.1470 C.3          1 H1S802   0.0000
    18 O18         -3.6970   103.6800    37.1050 O.3          1 H1S802   0.0000
    19 C19         -2.5690   103.0270    40.2790 C.2          1 H1S802   0.0000
    20 S20          4.0540   107.2210    41.2680 S.o2         1 H1S802   0.0000
    21 O21          3.0930   104.5660    33.1000 O.co2        1 H1S802   0.0000
    22 O22          0.6880   104.1140    32.8790 O.co2        1 H1S802   0.0000
    23 O23          2.1110   102.6210    34.1620 O.co2        1 H1S802  -1.0000
    24 C24         -3.0530   101.9850    39.5760 C.2          1 H1S802   0.0000
    25 O25         -1.3270   101.1130    38.1530 O.3          1 H1S802   0.0000
    26 S26         -4.3180   103.4520    35.6030 S.o2         1 H1S802   0.0000
    27 C27         -2.1580   102.8830    41.6760 C.2          1 H1S802   0.0000
    28 O28          3.2300   108.4340    41.0940 O.co2        1 H1S802   0.0000
    29 O29          4.4950   107.1050    42.6750 O.co2        1 H1S802   0.0000
    30 O30          5.2640   107.3310    40.4270 O.co2        1 H1S802  -1.0000
    31 O31         -5.6460   104.1070    35.5030 O.co2        1 H1S802   0.0000
    32 O32         -3.3830   104.0200    34.6010 O.co2        1 H1S802   0.0000
    33 O33         -4.4820   102.0010    35.3530 O.co2        1 H1S802  -1.0000
    34 O34         -1.6000   103.8480    42.2450 O.co2        1 H1S802   0.0000
    35 O35         -2.3730   101.8020    42.2670 O.co2        1 H1S802  -1.0000
    36 H1           0.1184   105.6347    38.2091 H            1 H1S802   0.0000
    37 H2           1.8488   103.4212    37.6086 H            1 H1S802   0.0000
    38 H3           1.6081   104.2399    40.2365 H            1 H1S802   0.0000
    39 H4          -0.0484   104.9210    36.2083 H            1 H1S802   0.0000
    40 H5           0.5349   103.4388    35.8483 H            1 H1S802   0.0000
    41 H6          -1.6917   105.0859    37.9268 H            1 H1S802   0.0000
    42 H7           2.2050   106.9353    39.3636 H            1 H1S802   0.0000
    43 H8          -0.1024   105.0582    41.2484 H            1 H1S802   0.0000
    44 H9           4.1235   106.1480    38.3035 H            1 H1S802   0.0000
    45 H10         -1.8630   103.0594    36.6452 H            1 H1S802   0.0000
    46 H11          2.5786   105.8380    41.5759 H            1 H1S802   0.0000
    47 H12          5.1066   104.4327    38.9328 H            1 H1S802   0.0000
    48 H13         -3.2559   101.2692    37.6403 H            1 H1S802   0.0000
    49 H14         -3.7048   101.3468    39.9857 H            1 H1S802   0.0000
    50 H15         -1.4408   100.2221    38.5927 H            1 H1S802   0.0000
@<TRIPOS>BOND
     1    1    2       1
     2    1    3       1
     3    1    4       1
     4    2    5       1
     5    2    6       1
     6    3    7       1
     7    4    8       1
     8    4    9       1
     9    5   10       1
    10    6   11       1
    11    7   12       1
    12    7   13       1
    13    8   10       1
    14    8   14       1
    15   10   15       1
    16   11   16       1
    17   12   17       1
    18   12   18       1
    19   13   19       1
    20   14   20       1
    21   16   21      ar
    22   16   22      ar
    23   16   23      ar
    24   17   24       1
    25   17   25       1
    26   18   26       1
    27   19   24       2
    28   19   27       1
    29   20   28      ar
    30   20   29      ar
    31   20   30      ar
    32   26   31      ar
    33   26   32      ar
    34   26   33      ar
    35   27   34      ar
    36   27   35      ar
    37    1   36       1
    38    2   37       1
    39    4   38       1
    40    6   39       1
    41    6   40       1
    42    7   41       1
    43    8   42       1
    44    9   43       1
    45   10   44       1
    46   12   45       1
    47   14   46       1
    48   15   47       1
    49   17   48       1
    50   25   50       1
    51   24   49       1
@<TRIPOS>SUBSTRUCTURE
     1 H1S802      1 GROUP             4 B     H1S     0 **** H1S B 802
