@<TRIPOS>MOLECULE
2vq3_NAP_2_ligand
   73    77     1     0     0
SMALL
NO_CHARGES


@<TRIPOS>ATOM
     1 PA          15.9060   -13.4740    51.9190 P.3          1 NAP1210   0.0000
     2 O1A         14.5840   -14.0530    51.6060 O.co2        1 NAP1210   0.0000
     3 O2A         16.9890   -14.4970    52.0400 O.co2        1 NAP1210  -1.0000
     4 O5B         15.7450   -12.5280    53.2180 O.3          1 NAP1210   0.0000
     5 C5B         14.6470   -11.6480    53.3630 C.3          1 NAP1210   0.0000
     6 C4B         14.6380   -11.1200    54.7940 C.3          1 NAP1210   0.0000
     7 O4B         13.5940   -10.1930    55.0030 O.3          1 NAP1210   0.0000
     8 C3B         14.3920   -12.2010    55.8440 C.3          1 NAP1210   0.0000
     9 O3B         15.6000   -12.7560    56.2990 O.3          1 NAP1210   0.0000
    10 C2B         13.6100   -11.5060    56.9510 C.3          1 NAP1210   0.0000
    11 O2B         14.2890   -11.4390    58.1900 O.3          1 NAP1210   0.0000
    12 C1B         13.3820   -10.1050    56.4070 C.3          1 NAP1210   0.0000
    13 N9A         12.0350    -9.6130    56.7600 N.pl3        1 NAP1210   0.0000
    14 C8A         11.7670    -8.5440    57.5790 C.2          1 NAP1210   0.0000
    15 N7A         10.4260    -8.4010    57.6660 N.2          1 NAP1210   0.0000
    16 C5A          9.8400    -9.3660    56.9210 C.ar         1 NAP1210   0.0000
    17 C6A          8.5060    -9.6660    56.6740 C.ar         1 NAP1210   0.0000
    18 N6A          7.5540    -8.9180    57.2310 N.pl3        1 NAP1210   0.0000
    19 N1A          8.1900   -10.7330    55.8460 N.ar         1 NAP1210   0.0000
    20 C2A          9.2050   -11.4960    55.2790 C.ar         1 NAP1210   0.0000
    21 N3A         10.5350   -11.1930    55.5340 N.ar         1 NAP1210   0.0000
    22 C4A         10.8400   -10.1380    56.3390 C.ar         1 NAP1210   0.0000
    23 O3          16.3820   -12.4190    50.7830 O.3          1 NAP1210   0.0000
    24 PN          17.8560   -11.8020    50.4590 P.3          1 NAP1210   0.0000
    25 O1N         18.6530   -11.7550    51.7020 O.co2        1 NAP1210   0.0000
    26 O2N         18.3940   -12.4620    49.2440 O.co2        1 NAP1210  -1.0000
    27 O5D         17.4570   -10.2980    49.9640 O.3          1 NAP1210   0.0000
    28 C5D         16.9870    -9.2250    50.7670 C.3          1 NAP1210   0.0000
    29 C4D         17.2950    -7.9300    50.0140 C.3          1 NAP1210   0.0000
    30 O4D         18.6470    -7.9580    49.5820 O.3          1 NAP1210   0.0000
    31 C3D         16.4360    -7.8100    48.7380 C.3          1 NAP1210   0.0000
    32 O3D         15.9360    -6.5070    48.5540 O.3          1 NAP1210   0.0000
    33 C2D         17.3630    -8.1610    47.5890 C.3          1 NAP1210   0.0000
    34 O2D         17.0590    -7.5620    46.3270 O.3          1 NAP1210   0.0000
    35 C1D         18.6830    -7.6770    48.1870 C.3          1 NAP1210   0.0000
    36 N1N         19.8340    -8.2180    47.4270 N.ar         1 NAP1210   1.0000
    37 C2N         20.0720    -9.5840    47.3450 C.ar         1 NAP1210   0.0000
    38 C3N         21.1620   -10.0790    46.5970 C.ar         1 NAP1210   0.0000
    39 C7N         21.6660   -11.5030    46.7860 C.2          1 NAP1210   0.0000
    40 O7N         22.7480   -11.9820    45.9980 O.2          1 NAP1210   0.0000
    41 N7N         21.0880   -12.3100    47.6990 N.am         1 NAP1210   0.0000
    42 C4N         21.9860    -9.1540    45.9300 C.ar         1 NAP1210   0.0000
    43 C5N         21.7370    -7.7820    46.0130 C.ar         1 NAP1210   0.0000
    44 C6N         20.6450    -7.3160    46.7660 C.ar         1 NAP1210   0.0000
    45 P2B         13.5100   -11.6330    59.5990 P.3          1 NAP1210   0.0000
    46 O1X         13.0520   -10.2670    60.0470 O.co2        1 NAP1210   0.0000
    47 O2X         12.3870   -12.6420    59.4330 O.co2        1 NAP1210  -1.0000
    48 O3X         14.3990   -12.1980    60.6660 O.co2        1 NAP1210  -1.0000
    49 H5B1        13.7950   -12.1380    53.1786 H            1 NAP1210   0.0000
    50 H5B2        14.7385   -10.8856    52.7224 H            1 NAP1210   0.0000
    51 H4B         15.5130   -10.6743    54.9831 H            1 NAP1210   0.0000
    52 H3B         13.8271   -12.9238    55.4460 H            1 NAP1210   0.0000
    53 H5          16.0893   -13.1660    55.5293 H            1 NAP1210   0.0000
    54 H2B         12.7296   -11.9634    57.0764 H            1 NAP1210   0.0000
    55 H1B         14.0652    -9.4895    56.8000 H            1 NAP1210   0.0000
    56 H8A         12.4478    -7.9695    58.0334 H            1 NAP1210   0.0000
    57 H6A1         6.5909    -9.1254    57.0597 H            1 NAP1210   0.0000
    58 H6A2         7.8028    -8.1493    57.8203 H            1 NAP1210   0.0000
    59 H2A          8.9754   -12.2667    54.6847 H            1 NAP1210   0.0000
    60 H5D1        17.4552    -9.2274    51.6506 H            1 NAP1210   0.0000
    61 H5D2        16.0013    -9.3113    50.9118 H            1 NAP1210   0.0000
    62 H4D         17.1400    -7.1410    50.6086 H            1 NAP1210   0.0000
    63 H3D         15.6790    -8.4623    48.7754 H            1 NAP1210   0.0000
    64 H16         15.3873    -6.4754    47.7186 H            1 NAP1210   0.0000
    65 H2D         17.3943    -9.1549    47.4829 H            1 NAP1210   0.0000
    66 H18         16.0728    -7.4114    46.2584 H            1 NAP1210   0.0000
    67 H1D         18.7049    -6.6823    48.0870 H            1 NAP1210   0.0000
    68 H2N         19.4660   -10.2222    47.8199 H            1 NAP1210   0.0000
    69 H7N1        21.4206   -13.2451    47.8216 H            1 NAP1210   0.0000
    70 H7N2        20.3269   -11.9733    48.2534 H            1 NAP1210   0.0000
    71 H4N         22.7602    -9.4831    45.3893 H            1 NAP1210   0.0000
    72 H5N         22.3330    -7.1340    45.5388 H            1 NAP1210   0.0000
    73 H6N         20.4562    -6.3356    46.8229 H            1 NAP1210   0.0000
@<TRIPOS>BOND
     1    1    2      ar
     2    1    3      ar
     3    1    4       1
     4    1   23       1
     5    4    5       1
     6    5    6       1
     7    6    7       1
     8    6    8       1
     9    7   12       1
    10    8    9       1
    11    8   10       1
    12   10   11       1
    13   10   12       1
    14   11   45       1
    15   12   13       1
    16   13   14       1
    17   13   22       1
    18   14   15       2
    19   15   16       1
    20   16   17      ar
    21   16   22      ar
    22   17   18       1
    23   17   19      ar
    24   19   20      ar
    25   20   21      ar
    26   21   22      ar
    27   23   24       1
    28   24   25      ar
    29   24   26      ar
    30   24   27       1
    31   27   28       1
    32   28   29       1
    33   29   30       1
    34   29   31       1
    35   30   35       1
    36   31   32       1
    37   31   33       1
    38   33   34       1
    39   33   35       1
    40   35   36       1
    41   36   37      ar
    42   36   44      ar
    43   37   38      ar
    44   38   39       1
    45   38   42      ar
    46   39   40       2
    47   39   41      am
    48   42   43      ar
    49   43   44      ar
    50   45   46      ar
    51   45   47      ar
    52   45   48      ar
    53   43   72       1
    54    5   49       1
    55    5   50       1
    56    6   51       1
    57    8   52       1
    58    9   53       1
    59   10   54       1
    60   12   55       1
    61   14   56       1
    62   18   57       1
    63   18   58       1
    64   20   59       1
    65   44   73       1
    66   28   60       1
    67   28   61       1
    68   29   62       1
    69   31   63       1
    70   32   64       1
    71   33   65       1
    72   34   66       1
    73   35   67       1
    74   37   68       1
    75   41   69       1
    76   41   70       1
    77   42   71       1
@<TRIPOS>SUBSTRUCTURE
     1 NAP1210     1 GROUP             4 B     NAP     0 **** NAP B1210
