@<TRIPOS>MOLECULE
1r9o_FLP_1_ligand
   30    31     1     0     0
SMALL
NO_CHARGES


@<TRIPOS>ATOM
     1 C            7.1650    28.8000    -3.4190 C.ar         1 FLP501   0.0000
     2 C1           7.9960    29.9080    -2.9780 C.ar         1 FLP501   0.0000
     3 C2           7.4050    31.1310    -2.4090 C.ar         1 FLP501   0.0000
     4 C3           5.9180    31.1860    -2.3550 C.ar         1 FLP501   0.0000
     5 C4           5.1100    30.0940    -2.7940 C.ar         1 FLP501   0.0000
     6 C5           5.7330    28.9200    -3.3470 C.ar         1 FLP501   0.0000
     7 C6           8.2080    32.2190    -1.9230 C.ar         1 FLP501   0.0000
     8 C7           9.4770    31.9350    -1.1840 C.ar         1 FLP501   0.0000
     9 C8          10.2930    32.9970    -0.6700 C.ar         1 FLP501   0.0000
    10 C9           9.9840    34.3880    -0.9680 C.ar         1 FLP501   0.0000
    11 C10          8.7720    34.6890    -1.6770 C.ar         1 FLP501   0.0000
    12 C11          7.9400    33.6530    -2.2260 C.ar         1 FLP501   0.0000
    13 C12         10.8540    35.5880    -0.4360 C.3          1 FLP501   0.0000
    14 C13         10.2100    36.3010     0.8070 C.3          1 FLP501   0.0000
    15 C14         11.1200    36.6260    -1.6110 C.2          1 FLP501   0.0000
    16 O           10.5880    37.7400    -1.5960 O.co2        1 FLP501   0.0000
    17 O1          11.8690    36.2900    -2.5550 O.co2        1 FLP501  -1.0000
    18 F            6.8130    34.0900    -2.9120 F            1 FLP501   0.0000
    19 H1           7.5845    27.9624    -3.7690 H            1 FLP501   0.0000
    20 H2           8.9900    29.8384    -3.0628 H            1 FLP501   0.0000
    21 H3           5.4737    32.0094    -2.0020 H            1 FLP501   0.0000
    22 H4           4.1142    30.1445    -2.7176 H            1 FLP501   0.0000
    23 H5           5.1601    28.1743    -3.6873 H            1 FLP501   0.0000
    24 H6           9.7621    30.9866    -1.0456 H            1 FLP501   0.0000
    25 H7          11.0847    32.7789    -0.0993 H            1 FLP501   0.0000
    26 H8           8.4996    35.6443    -1.7919 H            1 FLP501   0.0000
    27 H9          11.7385    35.2190    -0.1503 H            1 FLP501   0.0000
    28 H10         10.8002    37.0519     1.1033 H            1 FLP501   0.0000
    29 H11          9.3119    36.6621     0.5559 H            1 FLP501   0.0000
    30 H12         10.1080    35.6429     1.5530 H            1 FLP501   0.0000
@<TRIPOS>BOND
     1    1    2      ar
     2    1    6      ar
     3    2    3      ar
     4    3    4      ar
     5    3    7       1
     6    4    5      ar
     7    5    6      ar
     8    7    8      ar
     9    7   12      ar
    10    8    9      ar
    11    9   10      ar
    12   10   11      ar
    13   10   13       1
    14   11   12      ar
    15   12   18       1
    16   13   14       1
    17   13   15       1
    18   15   16      ar
    19   15   17      ar
    20    1   19       1
    21    2   20       1
    22    4   21       1
    23    5   22       1
    24    6   23       1
    25    8   24       1
    26    9   25       1
    27   11   26       1
    28   13   27       1
    29   14   28       1
    30   14   29       1
    31   14   30       1
@<TRIPOS>SUBSTRUCTURE
     1 FLP501      1 GROUP             4 A     FLP     0 **** FLP A 501
