@<TRIPOS>MOLECULE
1a27_EST_1_ligand
   44    47     1     0     0
SMALL
NO_CHARGES


@<TRIPOS>ATOM
     1 C1          12.7130     8.8170    -8.0400 C.ar         1 EST350   0.0000
     2 C2          12.3800     9.8540    -8.9020 C.ar         1 EST350   0.0000
     3 C3          12.3600     9.6540   -10.2510 C.ar         1 EST350   0.0000
     4 O3          12.0240    10.6800   -11.1190 O.3          1 EST350   0.0000
     5 C4          12.6730     8.3960   -10.7690 C.ar         1 EST350   0.0000
     6 C5          13.0170     7.3520    -9.8970 C.ar         1 EST350   0.0000
     7 C6          13.3440     6.0130   -10.5050 C.3          1 EST350   0.0000
     8 C7          13.6630     4.8710    -9.5590 C.3          1 EST350   0.0000
     9 C8          13.0480     5.0270    -8.1680 C.3          1 EST350   0.0000
    10 C9          13.4440     6.4050    -7.5910 C.3          1 EST350   0.0000
    11 C10         13.0390     7.5450    -8.4960 C.ar         1 EST350   0.0000
    12 C11         13.0960     6.5790    -6.1340 C.3          1 EST350   0.0000
    13 C12         13.4700     5.3880    -5.2240 C.3          1 EST350   0.0000
    14 C13         12.9060     4.0780    -5.7730 C.3          1 EST350   0.0000
    15 C14         13.3110     3.9060    -7.2410 C.3          1 EST350   0.0000
    16 C15         12.9880     2.4440    -7.5400 C.3          1 EST350   0.0000
    17 C16         13.5520     1.7340    -6.2670 C.3          1 EST350   0.0000
    18 C17         13.5260     2.8080    -5.1660 C.3          1 EST350   0.0000
    19 O17         12.8420     2.3200    -4.0040 O.3          1 EST350   0.0000
    20 C18         11.4130     3.9660    -5.4530 C.3          1 EST350   0.0000
    21 H1          12.7184     8.9919    -7.0554 H            1 EST350   0.0000
    22 H2          12.1531    10.7543    -8.5306 H            1 EST350   0.0000
    23 H3          12.0140    10.5171   -12.1056 H            1 EST350   0.0000
    24 H4          12.6521     8.2397   -11.7565 H            1 EST350   0.0000
    25 H5          14.1384     6.1402   -11.0990 H            1 EST350   0.0000
    26 H6          12.5572     5.7344   -11.0557 H            1 EST350   0.0000
    27 H7          14.6563     4.8132    -9.4592 H            1 EST350   0.0000
    28 H8          13.3186     4.0231    -9.9620 H            1 EST350   0.0000
    29 H9          12.0573     5.0535    -8.3013 H            1 EST350   0.0000
    30 H10         14.4437     6.4092    -7.6131 H            1 EST350   0.0000
    31 H11         12.1087     6.7224    -6.0663 H            1 EST350   0.0000
    32 H12         13.5745     7.3894    -5.7959 H            1 EST350   0.0000
    33 H13         13.0976     5.5461    -4.3095 H            1 EST350   0.0000
    34 H14         14.4661     5.3179    -5.1707 H            1 EST350   0.0000
    35 H15         14.3096     3.8994    -7.1893 H            1 EST350   0.0000
    36 H16         13.4508     2.1297    -8.3689 H            1 EST350   0.0000
    37 H17         12.0029     2.2991    -7.6329 H            1 EST350   0.0000
    38 H18         14.4870     1.4172    -6.4267 H            1 EST350   0.0000
    39 H19         12.9755     0.9572    -6.0136 H            1 EST350   0.0000
    40 H20         14.4701     3.0140    -4.9087 H            1 EST350   0.0000
    41 H21         12.5134     1.3913    -4.1761 H            1 EST350   0.0000
    42 H22         11.0576     3.1053    -5.8176 H            1 EST350   0.0000
    43 H23         11.2820     3.9876    -4.4619 H            1 EST350   0.0000
    44 H24         10.9242     4.7320    -5.8706 H            1 EST350   0.0000
@<TRIPOS>BOND
     1    1    2      ar
     2    1   11      ar
     3    2    3      ar
     4    3    4       1
     5    3    5      ar
     6    5    6      ar
     7    6    7       1
     8    6   11      ar
     9    7    8       1
    10    8    9       1
    11    9   10       1
    12    9   15       1
    13   10   11       1
    14   10   12       1
    15   12   13       1
    16   13   14       1
    17   14   15       1
    18   14   18       1
    19   14   20       1
    20   15   16       1
    21   16   17       1
    22   17   18       1
    23   18   19       1
    24    1   21       1
    25    2   22       1
    26    4   23       1
    27    5   24       1
    28    7   25       1
    29    7   26       1
    30    8   27       1
    31    8   28       1
    32    9   29       1
    33   10   30       1
    34   12   31       1
    35   12   32       1
    36   13   33       1
    37   13   34       1
    38   15   35       1
    39   16   36       1
    40   16   37       1
    41   17   38       1
    42   17   39       1
    43   18   40       1
    44   19   41       1
    45   20   42       1
    46   20   43       1
    47   20   44       1
@<TRIPOS>SUBSTRUCTURE
     1 EST350      1 GROUP             4 A     EST     0 **** EST A 350
