@<TRIPOS>MOLECULE
5jin_SAM_2_ligand
   50    52     1     0     0
SMALL
NO_CHARGES


@<TRIPOS>ATOM
     1 N           54.7080    -1.2250    98.3760 N.4          1 SAM1205   1.0000
     2 CA          55.0900    -0.3430    97.2660 C.3          1 SAM1205   0.0000
     3 C           54.3030    -0.6180    95.9990 C.2          1 SAM1205   0.0000
     4 O           54.6980     0.0250    94.9840 O.co2        1 SAM1205   0.0000
     5 OXT         53.3260    -1.4380    96.0090 O.co2        1 SAM1205  -1.0000
     6 CB          56.5900    -0.5580    96.9380 C.3          1 SAM1205   0.0000
     7 CG          57.5100     0.0860    97.9340 C.3          1 SAM1205   0.0000
     8 SD          57.5950     1.7800    97.7500 S.3          1 SAM1205   1.0000
     9 CE          59.2440     2.1210    97.7330 C.3          1 SAM1205   0.0000
    10 C5'         57.2380     2.6990    99.1110 C.3          1 SAM1205   0.0000
    11 C4'         55.7350     2.6550    99.4990 C.3          1 SAM1205   0.0000
    12 O4'         55.2300     1.3060    99.7210 O.3          1 SAM1205   0.0000
    13 C3'         55.4400     3.3960   100.7980 C.3          1 SAM1205   0.0000
    14 O3'         55.2160     4.7910   100.6270 O.3          1 SAM1205   0.0000
    15 C2'         54.1490     2.7140   101.1880 C.3          1 SAM1205   0.0000
    16 O2'         53.0780     3.1280   100.3240 O.3          1 SAM1205   0.0000
    17 C1'         54.4230     1.2480   100.9190 C.3          1 SAM1205   0.0000
    18 N9          55.1480     0.6250   102.0750 N.pl3        1 SAM1205   0.0000
    19 C8          56.4370     0.1920   102.0380 C.2          1 SAM1205   0.0000
    20 N7          56.8220    -0.2970   103.2430 N.2          1 SAM1205   0.0000
    21 C5          55.7730    -0.2000   104.0890 C.ar         1 SAM1205   0.0000
    22 C6          55.5080    -0.5500   105.5230 C.ar         1 SAM1205   0.0000
    23 N6          56.5030    -1.1300   106.2660 N.pl3        1 SAM1205   0.0000
    24 N1          54.2450    -0.2690   106.0390 N.ar         1 SAM1205   0.0000
    25 C2          53.2810     0.3080   105.2720 C.ar         1 SAM1205   0.0000
    26 N3          53.4850     0.6270   103.9630 N.ar         1 SAM1205   0.0000
    27 C4          54.6680     0.4090   103.3160 C.ar         1 SAM1205   0.0000
    28 H1          55.4969    -1.3701    98.9731 H            1 SAM1205   0.0000
    29 H2          53.9679    -0.8017    98.8985 H            1 SAM1205   0.0000
    30 HA          54.9478     0.6082    97.5398 H            1 SAM1205   0.0000
    31 HB1         56.7769    -0.1703    96.0354 H            1 SAM1205   0.0000
    32 HB2         56.7747    -1.5407    96.9235 H            1 SAM1205   0.0000
    33 HG1         58.4269    -0.2953    97.8161 H            1 SAM1205   0.0000
    34 HG2         57.1793    -0.1198    98.8550 H            1 SAM1205   0.0000
    35 HE1         59.3796     3.1061    97.6271 H            1 SAM1205   0.0000
    36 HE2         59.6558     1.8184    98.5925 H            1 SAM1205   0.0000
    37 HE3         59.6758     1.6411    96.9693 H            1 SAM1205   0.0000
    38 H5'1        57.4920     3.6489    98.9291 H            1 SAM1205   0.0000
    39 H5'2        57.7753     2.3516    99.8795 H            1 SAM1205   0.0000
    40 H4'         55.2040     3.0769    98.7641 H            1 SAM1205   0.0000
    41 H3'         56.1543     3.2278   101.4774 H            1 SAM1205   0.0000
    42 H15         56.0849     5.2800   100.7036 H            1 SAM1205   0.0000
    43 H2'         53.9263     2.8743   102.1496 H            1 SAM1205   0.0000
    44 H17         53.0279     2.5131    99.5370 H            1 SAM1205   0.0000
    45 H1'         53.5682     0.7607   100.7402 H            1 SAM1205   0.0000
    46 H19         57.0235     0.2293   101.2289 H            1 SAM1205   0.0000
    47 H20         56.3383    -1.3679   107.2232 H            1 SAM1205   0.0000
    48 H21         57.3937    -1.3153   105.8509 H            1 SAM1205   0.0000
    49 H22         52.3911     0.5050   105.6834 H            1 SAM1205   0.0000
    50 H23         54.3991    -2.1038    98.0123 H            1 SAM1205   0.0000
@<TRIPOS>BOND
     1    1    2       1
     2    2    3       1
     3    2    6       1
     4    3    4      ar
     5    3    5      ar
     6    6    7       1
     7    7    8       1
     8    8    9       1
     9    8   10       1
    10   10   11       1
    11   11   12       1
    12   11   13       1
    13   12   17       1
    14   13   14       1
    15   13   15       1
    16   15   16       1
    17   15   17       1
    18   17   18       1
    19   18   19       1
    20   18   27       1
    21   19   20       2
    22   20   21       1
    23   21   22      ar
    24   21   27      ar
    25   22   23       1
    26   22   24      ar
    27   24   25      ar
    28   25   26      ar
    29   26   27      ar
    30    1   28       1
    31    1   29       1
    32    2   30       1
    33    1   50       1
    34    6   31       1
    35    6   32       1
    36    7   33       1
    37    7   34       1
    38    9   35       1
    39    9   36       1
    40    9   37       1
    41   10   38       1
    42   10   39       1
    43   11   40       1
    44   13   41       1
    45   14   42       1
    46   15   43       1
    47   16   44       1
    48   17   45       1
    49   19   46       1
    50   23   47       1
    51   23   48       1
    52   25   49       1
@<TRIPOS>SUBSTRUCTURE
     1 SAM1205     1 GROUP             4 B     SAM     0 **** SAM B1205
