@<TRIPOS>MOLECULE
1eje_FMN_1_ligand
   50    52     1     0     0
SMALL
NO_CHARGES


@<TRIPOS>ATOM
     1 N1          31.9670    30.8760    35.7880 N.2          1 FMN401   0.0000
     2 C2          31.3400    30.0480    34.8790 C.2          1 FMN401   0.0000
     3 O2          30.6250    29.1380    35.1870 O.2          1 FMN401   0.0000
     4 N3          31.5400    30.2760    33.4720 N.pl3        1 FMN401   0.0000
     5 C4          32.3130    31.2550    32.9380 C.2          1 FMN401   0.0000
     6 O4          32.4230    31.3740    31.7060 O.2          1 FMN401   0.0000
     7 C4A         32.9860    32.1360    33.9010 C.2          1 FMN401   0.0000
     8 N5          33.7640    33.1200    33.4690 N.2          1 FMN401   0.0000
     9 C5A         34.3830    33.9340    34.3830 C.ar         1 FMN401   0.0000
    10 C6          35.2430    35.0180    33.9170 C.ar         1 FMN401   0.0000
    11 C7          35.8990    35.8750    34.7480 C.ar         1 FMN401   0.0000
    12 C7M         36.7930    37.0010    34.2270 C.3          1 FMN401   0.0000
    13 C8          35.7520    35.7210    36.2110 C.ar         1 FMN401   0.0000
    14 C8M         36.4600    36.6470    37.1780 C.3          1 FMN401   0.0000
    15 C9          34.9320    34.6890    36.6780 C.ar         1 FMN401   0.0000
    16 C9A         34.2410    33.7880    35.8250 C.ar         1 FMN401   0.0000
    17 N10         33.3910    32.7190    36.2630 N.pl3        1 FMN401   0.0000
    18 C10         32.7500    31.8690    35.3630 C.2          1 FMN401   0.0000
    19 C1'         33.2110    32.5290    37.7330 C.3          1 FMN401   0.0000
    20 C2'         31.9070    33.1510    38.2480 C.3          1 FMN401   0.0000
    21 O2'         31.7800    34.5300    37.9220 O.3          1 FMN401   0.0000
    22 C3'         31.8190    32.9970    39.7920 C.3          1 FMN401   0.0000
    23 O3'         31.7570    31.5770    40.1210 O.3          1 FMN401   0.0000
    24 C4'         30.6310    33.7010    40.4390 C.3          1 FMN401   0.0000
    25 O4'         30.6910    33.5150    41.8770 O.3          1 FMN401   0.0000
    26 C5'         29.2700    33.1840    40.0120 C.3          1 FMN401   0.0000
    27 O5'         28.2640    33.9510    40.6950 O.3          1 FMN401   0.0000
    28 P           26.7810    33.4520    40.9240 P.3          1 FMN401   0.0000
    29 O1P         26.8260    32.2380    41.8220 O.co2        1 FMN401   0.0000
    30 O2P         26.1650    33.1870    39.5710 O.co2        1 FMN401  -1.0000
    31 O3P         26.1230    34.6570    41.6900 O.co2        1 FMN401  -1.0000
    32 H1          31.0711    29.6629    32.8362 H            1 FMN401   0.0000
    33 H2          35.3570    35.1382    32.9308 H            1 FMN401   0.0000
    34 H7M1        37.1753    37.5077    34.9997 H            1 FMN401   0.0000
    35 H7M2        37.5364    36.6118    33.6831 H            1 FMN401   0.0000
    36 H7M3        36.2519    37.6198    33.6575 H            1 FMN401   0.0000
    37 H8M1        36.2365    36.3832    38.1163 H            1 FMN401   0.0000
    38 H8M2        37.4482    36.5811    37.0397 H            1 FMN401   0.0000
    39 H8M3        36.1628    37.5881    37.0165 H            1 FMN401   0.0000
    40 H9          34.8264    34.5795    37.6664 H            1 FMN401   0.0000
    41 H1'1        33.9801    32.9560    38.2085 H            1 FMN401   0.0000
    42 H1'2        33.1993    31.5489    37.9310 H            1 FMN401   0.0000
    43 H2'         31.1395    32.6583    37.8380 H            1 FMN401   0.0000
    44 H13         31.7966    34.6405    36.9283 H            1 FMN401   0.0000
    45 H3'         32.6565    33.3717    40.1898 H            1 FMN401   0.0000
    46 H15         31.7001    31.4669    41.1133 H            1 FMN401   0.0000
    47 H4'         30.6843    34.6788    40.2363 H            1 FMN401   0.0000
    48 H17         30.2749    34.3020    42.3326 H            1 FMN401   0.0000
    49 H5'1        29.1830    32.2181    40.2558 H            1 FMN401   0.0000
    50 H5'2        29.1628    33.2892    39.0233 H            1 FMN401   0.0000
@<TRIPOS>BOND
     1    1    2       1
     2    1   18       2
     3    2    3       2
     4    2    4       1
     5    4    5       1
     6    5    6       2
     7    5    7       1
     8    7    8       2
     9    7   18       1
    10    8    9       1
    11    9   10      ar
    12    9   16      ar
    13   10   11      ar
    14   11   12       1
    15   11   13      ar
    16   13   14       1
    17   13   15      ar
    18   15   16      ar
    19   16   17       1
    20   17   18       1
    21   17   19       1
    22   19   20       1
    23   20   21       1
    24   20   22       1
    25   22   23       1
    26   22   24       1
    27   24   25       1
    28   24   26       1
    29   26   27       1
    30   27   28       1
    31   28   29      ar
    32   28   30      ar
    33   28   31      ar
    34    4   32       1
    35   10   33       1
    36   12   34       1
    37   12   35       1
    38   12   36       1
    39   14   37       1
    40   14   38       1
    41   14   39       1
    42   15   40       1
    43   19   41       1
    44   19   42       1
    45   20   43       1
    46   21   44       1
    47   22   45       1
    48   23   46       1
    49   24   47       1
    50   25   48       1
    51   26   49       1
    52   26   50       1
@<TRIPOS>SUBSTRUCTURE
     1 FMN401      1 GROUP             4 A     FMN     0 **** FMN A 401
