@<TRIPOS>MOLECULE
4o0l_NDP_3_ligand
   73    77     1     0     0
SMALL
NO_CHARGES


@<TRIPOS>ATOM
     1 PA          61.1500   -13.3730    29.7440 P.3          1 NDP300   0.0000
     2 O1A         60.3250   -14.1540    30.7040 O.co2        1 NDP300   0.0000
     3 O2A         62.4950   -13.9530    29.3930 O.co2        1 NDP300  -1.0000
     4 O5B         61.3420   -11.8780    30.2330 O.3          1 NDP300   0.0000
     5 C5B         60.2850   -11.1480    30.8410 C.3          1 NDP300   0.0000
     6 C4B         60.8990   -10.1540    31.8060 C.3          1 NDP300   0.0000
     7 O4B         59.8890    -9.4470    32.4870 O.3          1 NDP300   0.0000
     8 C3B         61.7180   -10.8940    32.8710 C.3          1 NDP300   0.0000
     9 O3B         63.0850   -10.6150    32.6580 O.3          1 NDP300   0.0000
    10 C2B         61.2120   -10.3830    34.2110 C.3          1 NDP300   0.0000
    11 O2B         62.2490    -9.9960    35.0860 O.3          1 NDP300   0.0000
    12 C1B         60.4070    -9.1650    33.7890 C.3          1 NDP300   0.0000
    13 N9A         59.3470    -8.8070    34.7470 N.pl3        1 NDP300   0.0000
    14 C8A         58.1030    -9.3690    34.8860 C.2          1 NDP300   0.0000
    15 N7A         57.4710    -8.7290    35.8920 N.2          1 NDP300   0.0000
    16 C5A         58.2840    -7.7670    36.3720 C.ar         1 NDP300   0.0000
    17 C6A         58.1880    -6.8090    37.3960 C.ar         1 NDP300   0.0000
    18 N6A         57.0680    -6.7320    38.1120 N.pl3        1 NDP300   0.0000
    19 N1A         59.2270    -5.9670    37.6480 N.ar         1 NDP300   0.0000
    20 C2A         60.3790    -6.0390    36.9270 C.ar         1 NDP300   0.0000
    21 N3A         60.5200    -6.9700    35.9420 N.ar         1 NDP300   0.0000
    22 C4A         59.4920    -7.8120    35.6540 C.ar         1 NDP300   0.0000
    23 O3          60.2430   -13.2080    28.4150 O.3          1 NDP300   0.0000
    24 PN          60.4490   -12.2160    27.1880 P.3          1 NDP300   0.0000
    25 O1N         59.8440   -12.8500    25.9900 O.co2        1 NDP300   0.0000
    26 O2N         61.8700   -11.7900    27.0860 O.co2        1 NDP300  -1.0000
    27 O5D         59.5410   -10.9290    27.6380 O.3          1 NDP300   0.0000
    28 C5D         59.9540    -9.6090    27.3950 C.3          1 NDP300   0.0000
    29 C4D         58.7990    -8.7840    26.8020 C.3          1 NDP300   0.0000
    30 O4D         58.3950    -9.2790    25.5410 O.3          1 NDP300   0.0000
    31 C3D         57.5580    -8.7630    27.6680 C.3          1 NDP300   0.0000
    32 O3D         57.1440    -7.4400    27.7850 O.3          1 NDP300   0.0000
    33 C2D         56.5030    -9.5730    26.9200 C.3          1 NDP300   0.0000
    34 O2D         55.1960    -9.1150    27.1970 O.3          1 NDP300   0.0000
    35 C1D         56.9520    -9.3130    25.4980 C.3          1 NDP300   0.0000
    36 N1N         56.4970   -10.3030    24.5050 N.ar         1 NDP300   1.0000
    37 C2N         56.9910   -11.5860    24.5420 C.ar         1 NDP300   0.0000
    38 C3N         56.5510   -12.5220    23.5950 C.ar         1 NDP300   0.0000
    39 C7N         57.0430   -13.9460    23.5660 C.2          1 NDP300   0.0000
    40 O7N         56.3780   -14.8880    22.9110 O.2          1 NDP300   0.0000
    41 N7N         58.1870   -14.2350    24.2140 N.am         1 NDP300   0.0000
    42 C4N         55.6470   -12.1090    22.5800 C.ar         1 NDP300   0.0000
    43 C5N         55.1850   -10.7840    22.5630 C.ar         1 NDP300   0.0000
    44 C6N         55.6280    -9.8890    23.5260 C.ar         1 NDP300   0.0000
    45 P2B         62.8950   -11.0170    36.1670 P.3          1 NDP300   0.0000
    46 O1X         64.1790   -10.3480    36.6240 O.co2        1 NDP300   0.0000
    47 O2X         61.9540   -11.1460    37.3260 O.co2        1 NDP300  -1.0000
    48 O3X         63.2210   -12.3600    35.5640 O.co2        1 NDP300  -1.0000
    49 H5B1        59.6813   -11.7731    31.3357 H            1 NDP300   0.0000
    50 H5B2        59.7610   -10.6626    30.1411 H            1 NDP300   0.0000
    51 H4B         61.4857    -9.5149    31.3088 H            1 NDP300   0.0000
    52 H3B         61.5571   -11.8784    32.8000 H            1 NDP300   0.0000
    53 H5          63.2446   -10.4541    31.6840 H            1 NDP300   0.0000
    54 H2B         60.6204   -11.0621    34.6456 H            1 NDP300   0.0000
    55 H1B         61.0332    -8.3890    33.7134 H            1 NDP300   0.0000
    56 H8A         57.7310   -10.1191    34.3393 H            1 NDP300   0.0000
    57 H6A1        56.9876    -6.0546    38.8432 H            1 NDP300   0.0000
    58 H6A2        56.3073    -7.3516    37.9185 H            1 NDP300   0.0000
    59 H2A         61.1270    -5.4044    37.1214 H            1 NDP300   0.0000
    60 H5D1        60.7181    -9.6167    26.7499 H            1 NDP300   0.0000
    61 H5D2        60.2482    -9.1925    28.2552 H            1 NDP300   0.0000
    62 H4D         59.1146    -7.8426    26.6831 H            1 NDP300   0.0000
    63 H3D         57.7427    -9.1604    28.5668 H            1 NDP300   0.0000
    64 H16         57.8713    -6.8993    28.2076 H            1 NDP300   0.0000
    65 H2D         56.5870   -10.5447    27.1409 H            1 NDP300   0.0000
    66 H18         54.5346    -9.6683    26.6906 H            1 NDP300   0.0000
    67 H1D         56.6215    -8.4108    25.2209 H            1 NDP300   0.0000
    68 H2N         57.6585   -11.8493    25.2385 H            1 NDP300   0.0000
    69 H7N1        58.5394   -15.1708    24.2132 H            1 NDP300   0.0000
    70 H7N2        58.6844   -13.5138    24.6962 H            1 NDP300   0.0000
    71 H4N         55.3421   -12.7577    21.8827 H            1 NDP300   0.0000
    72 H5N         54.5393   -10.4863    21.8598 H            1 NDP300   0.0000
    73 H6N         55.3136    -8.9399    23.5070 H            1 NDP300   0.0000
@<TRIPOS>BOND
     1    1    2      ar
     2    1    3      ar
     3    1    4       1
     4    1   23       1
     5    4    5       1
     6    5    6       1
     7    6    7       1
     8    6    8       1
     9    7   12       1
    10    8    9       1
    11    8   10       1
    12   10   11       1
    13   10   12       1
    14   11   45       1
    15   12   13       1
    16   13   14       1
    17   13   22       1
    18   14   15       2
    19   15   16       1
    20   16   17      ar
    21   16   22      ar
    22   17   18       1
    23   17   19      ar
    24   19   20      ar
    25   20   21      ar
    26   21   22      ar
    27   23   24       1
    28   24   25      ar
    29   24   26      ar
    30   24   27       1
    31   27   28       1
    32   28   29       1
    33   29   30       1
    34   29   31       1
    35   30   35       1
    36   31   32       1
    37   31   33       1
    38   33   34       1
    39   33   35       1
    40   35   36       1
    41   36   37      ar
    42   36   44      ar
    43   37   38      ar
    44   38   39       1
    45   38   42      ar
    46   39   40       2
    47   39   41      am
    48   42   43      ar
    49   43   44      ar
    50   45   46      ar
    51   45   47      ar
    52   45   48      ar
    53   43   72       1
    54    5   49       1
    55    5   50       1
    56    6   51       1
    57    8   52       1
    58    9   53       1
    59   10   54       1
    60   12   55       1
    61   14   56       1
    62   18   57       1
    63   18   58       1
    64   20   59       1
    65   44   73       1
    66   28   60       1
    67   28   61       1
    68   29   62       1
    69   31   63       1
    70   32   64       1
    71   33   65       1
    72   34   66       1
    73   35   67       1
    74   37   68       1
    75   41   69       1
    76   41   70       1
    77   42   71       1
@<TRIPOS>SUBSTRUCTURE
     1 NDP300      1 GROUP             4 C     NDP     0 **** NDP C 300
