@<TRIPOS>MOLECULE
1ur5_NAD_2_ligand
   70    74     1     0     0
SMALL
NO_CHARGES


@<TRIPOS>ATOM
     1 PA          89.5150    18.7860    75.6830 P.3          1 NAD1309   0.0000
     2 O1A         90.0260    17.4210    75.8430 O.co2        1 NAD1309   0.0000
     3 O2A         89.9170    19.6390    74.4750 O.co2        1 NAD1309  -1.0000
     4 O5B         89.9170    19.7440    76.9180 O.3          1 NAD1309   0.0000
     5 C5B         89.7290    19.3740    78.3330 C.3          1 NAD1309   0.0000
     6 C4B         90.8770    20.0440    79.0720 C.3          1 NAD1309   0.0000
     7 O4B         90.6730    19.6740    80.5110 O.3          1 NAD1309   0.0000
     8 C3B         92.3160    19.4750    78.7760 C.3          1 NAD1309   0.0000
     9 O3B         93.1870    20.6180    78.3230 O.3          1 NAD1309   0.0000
    10 C2B         92.8460    18.8350    80.0230 C.3          1 NAD1309   0.0000
    11 O2B         94.1620    18.8050    80.3020 O.3          1 NAD1309   0.0000
    12 C1B         91.9530    19.5600    81.0770 C.3          1 NAD1309   0.0000
    13 N9A         91.7780    18.7820    82.2800 N.pl3        1 NAD1309   0.0000
    14 C8A         91.5850    17.4620    82.5930 C.2          1 NAD1309   0.0000
    15 N7A         91.4660    17.1740    83.8820 N.2          1 NAD1309   0.0000
    16 C5A         91.5800    18.3480    84.5190 C.ar         1 NAD1309   0.0000
    17 C6A         91.5320    18.7020    85.9810 C.ar         1 NAD1309   0.0000
    18 N6A         91.3550    17.8290    86.9380 N.pl3        1 NAD1309   0.0000
    19 N1A         91.6970    20.0450    86.1810 N.ar         1 NAD1309   0.0000
    20 C2A         91.8850    21.0340    85.2970 C.ar         1 NAD1309   0.0000
    21 N3A         91.9370    20.7540    83.9000 N.ar         1 NAD1309   0.0000
    22 C4A         91.7780    19.3910    83.5750 C.ar         1 NAD1309   0.0000
    23 O3          87.9660    18.7970    75.7000 O.3          1 NAD1309   0.0000
    24 PN          86.7190    19.6020    75.2230 P.3          1 NAD1309   0.0000
    25 O1N         86.3840    19.2640    73.8220 O.co2        1 NAD1309   0.0000
    26 O2N         86.9950    21.0570    75.4850 O.co2        1 NAD1309  -1.0000
    27 O5D         85.4170    19.1140    76.0620 O.3          1 NAD1309   0.0000
    28 C5D         85.5450    19.3550    77.5280 C.3          1 NAD1309   0.0000
    29 C4D         84.4110    18.6440    78.2220 C.3          1 NAD1309   0.0000
    30 O4D         83.1140    19.2470    77.7840 O.3          1 NAD1309   0.0000
    31 C3D         84.1890    17.1230    77.8990 C.3          1 NAD1309   0.0000
    32 O3D         83.7990    16.4170    79.0960 O.3          1 NAD1309   0.0000
    33 C2D         83.0880    17.0310    76.8390 C.3          1 NAD1309   0.0000
    34 O2D         82.3980    15.8070    76.7640 O.3          1 NAD1309   0.0000
    35 C1D         82.1750    18.2330    77.2440 C.3          1 NAD1309   0.0000
    36 N1N         81.3630    18.9250    76.1770 N.ar         1 NAD1309   1.0000
    37 C2N         79.9770    18.9620    76.2300 C.ar         1 NAD1309   0.0000
    38 C3N         79.3100    19.6030    75.2280 C.ar         1 NAD1309   0.0000
    39 C7N         77.7840    19.6610    75.2570 C.2          1 NAD1309   0.0000
    40 O7N         77.0541    20.1499    74.4024 O.2          1 NAD1309   0.0000
    41 N7N         77.2432    19.0615    76.4332 N.am         1 NAD1309   0.0000
    42 C4N         79.9900    20.2580    74.0930 C.ar         1 NAD1309   0.0000
    43 C5N         81.3980    20.1610    74.1400 C.ar         1 NAD1309   0.0000
    44 C6N         82.1050    19.5460    75.0960 C.ar         1 NAD1309   0.0000
    45 H5B1        89.7709    18.3812    78.4451 H            1 NAD1309   0.0000
    46 H5B2        88.8499    19.7107    78.6704 H            1 NAD1309   0.0000
    47 H4B         90.8516    21.0362    78.9498 H            1 NAD1309   0.0000
    48 H3B         92.2601    18.7908    78.0488 H            1 NAD1309   0.0000
    49 H5          93.2314    21.3094    79.0441 H            1 NAD1309   0.0000
    50 H2B         92.5407    17.8829    80.0025 H            1 NAD1309   0.0000
    51 H7          94.4103    19.6197    80.8261 H            1 NAD1309   0.0000
    52 H1B         92.3247    20.4630    81.2923 H            1 NAD1309   0.0000
    53 H8A         91.5365    16.7545    81.8879 H            1 NAD1309   0.0000
    54 H6A1        91.3329    18.1298    87.8914 H            1 NAD1309   0.0000
    55 H6A2        91.2417    16.8604    86.7166 H            1 NAD1309   0.0000
    56 H2A         91.9896    21.9749    85.6192 H            1 NAD1309   0.0000
    57 H5D1        85.4950    20.3360    77.7156 H            1 NAD1309   0.0000
    58 H5D2        86.4197    18.9972    77.8549 H            1 NAD1309   0.0000
    59 H4D         84.5084    18.7584    79.2106 H            1 NAD1309   0.0000
    60 H3D         85.0349    16.7299    77.5386 H            1 NAD1309   0.0000
    61 H17         84.1195    15.4711    79.0445 H            1 NAD1309   0.0000
    62 H2D         83.4907    17.2246    75.9444 H            1 NAD1309   0.0000
    63 H19         81.7065    15.8578    76.0434 H            1 NAD1309   0.0000
    64 H1D         81.5612    17.9392    77.9767 H            1 NAD1309   0.0000
    65 H2N         79.4804    18.5301    76.9829 H            1 NAD1309   0.0000
    66 H7N1        76.2531    19.0349    76.5709 H            1 NAD1309   0.0000
    67 H7N2        77.8543    18.6680    77.1201 H            1 NAD1309   0.0000
    68 H4N         79.4989    20.7270    73.3589 H            1 NAD1309   0.0000
    69 H5N         81.9108    20.5883    73.3954 H            1 NAD1309   0.0000
    70 H6N         83.1041    19.5159    75.0662 H            1 NAD1309   0.0000
@<TRIPOS>BOND
     1    1    2      ar
     2    1    3      ar
     3    1    4       1
     4    1   23       1
     5    4    5       1
     6    5    6       1
     7    6    7       1
     8    6    8       1
     9    7   12       1
    10    8    9       1
    11    8   10       1
    12   10   11       1
    13   10   12       1
    14   12   13       1
    15   13   14       1
    16   13   22       1
    17   14   15       2
    18   15   16       1
    19   16   17      ar
    20   16   22      ar
    21   17   18       1
    22   17   19      ar
    23   19   20      ar
    24   20   21      ar
    25   21   22      ar
    26   23   24       1
    27   24   25      ar
    28   24   26      ar
    29   24   27       1
    30   27   28       1
    31   28   29       1
    32   29   30       1
    33   29   31       1
    34   30   35       1
    35   31   32       1
    36   31   33       1
    37   33   34       1
    38   33   35       1
    39   35   36       1
    40   36   37      ar
    41   36   44      ar
    42   37   38      ar
    43   38   39       1
    44   38   42      ar
    45   39   40       2
    46   39   41      am
    47   42   43      ar
    48   43   44      ar
    49   44   70       1
    50    5   45       1
    51    5   46       1
    52    6   47       1
    53    8   48       1
    54    9   49       1
    55   10   50       1
    56   11   51       1
    57   12   52       1
    58   14   53       1
    59   18   54       1
    60   18   55       1
    61   20   56       1
    62   43   69       1
    63   28   57       1
    64   28   58       1
    65   29   59       1
    66   31   60       1
    67   32   61       1
    68   33   62       1
    69   34   63       1
    70   35   64       1
    71   37   65       1
    72   41   66       1
    73   41   67       1
    74   42   68       1
@<TRIPOS>SUBSTRUCTURE
     1 NAD1309     1 GROUP             4 C     NAD     0 **** NAD C1309
