@<TRIPOS>MOLECULE
3jyp_NAD_1_ligand
   70    74     1     0     0
SMALL
NO_CHARGES


@<TRIPOS>ATOM
     1 PA          29.0560    61.4750     0.8890 P.3          1 NAD377   0.0000
     2 O1A         29.5780    61.7470    -0.5080 O.co2        1 NAD377   0.0000
     3 O2A         28.0450    62.4050     1.5230 O.co2        1 NAD377  -1.0000
     4 O5B         30.2620    61.3420     1.9330 O.3          1 NAD377   0.0000
     5 C5B         31.4510    60.6620     1.5710 C.3          1 NAD377   0.0000
     6 C4B         32.6240    61.3950     2.1850 C.3          1 NAD377   0.0000
     7 O4B         33.8120    60.6960     1.8350 O.3          1 NAD377   0.0000
     8 C3B         32.7720    62.8330     1.6860 C.3          1 NAD377   0.0000
     9 O3B         32.6180    63.7630     2.7670 O.3          1 NAD377   0.0000
    10 C2B         34.1440    62.8520     1.0220 C.3          1 NAD377   0.0000
    11 O2B         34.8720    64.0790     1.1820 O.3          1 NAD377   0.0000
    12 C1B         34.8280    61.6760     1.6900 C.3          1 NAD377   0.0000
    13 N9A         35.9130    61.0310     0.9340 N.pl3        1 NAD377   0.0000
    14 C8A         35.8910    60.5660    -0.3330 C.2          1 NAD377   0.0000
    15 N7A         37.0930    60.0120    -0.6070 N.2          1 NAD377   0.0000
    16 C5A         37.8670    60.1310     0.5000 C.ar         1 NAD377   0.0000
    17 C6A         39.1640    59.7660     0.8310 C.ar         1 NAD377   0.0000
    18 N6A         39.9650    59.1340    -0.0680 N.pl3        1 NAD377   0.0000
    19 N1A         39.6300    60.0470     2.0640 N.ar         1 NAD377   0.0000
    20 C2A         38.8650    60.6680     2.9790 C.ar         1 NAD377   0.0000
    21 N3A         37.6060    61.0330     2.6910 N.ar         1 NAD377   0.0000
    22 C4A         37.1040    60.7730     1.4610 C.ar         1 NAD377   0.0000
    23 O3          28.4920    59.9720     0.8180 O.3          1 NAD377   0.0000
    24 PN          27.5670    59.2580     1.9020 P.3          1 NAD377   0.0000
    25 O1N         28.0990    59.4730     3.2860 O.co2        1 NAD377   0.0000
    26 O2N         26.1410    59.6150     1.5940 O.co2        1 NAD377  -1.0000
    27 O5D         27.7380    57.7400     1.4680 O.3          1 NAD377   0.0000
    28 C5D         29.0180    57.1160     1.4860 C.3          1 NAD377   0.0000
    29 C4D         28.8080    55.7330     0.9090 C.3          1 NAD377   0.0000
    30 O4D         27.9940    54.9660     1.7950 O.3          1 NAD377   0.0000
    31 C3D         28.0250    55.7340    -0.3960 C.3          1 NAD377   0.0000
    32 O3D         28.8610    55.9940    -1.5230 O.3          1 NAD377   0.0000
    33 C2D         27.4240    54.3510    -0.4270 C.3          1 NAD377   0.0000
    34 O2D         28.3000    53.4800    -1.1460 O.3          1 NAD377   0.0000
    35 C1D         27.3720    53.9330     1.0360 C.3          1 NAD377   0.0000
    36 N1N         26.0400    53.7480     1.6080 N.ar         1 NAD377   1.0000
    37 C2N         25.8810    52.6600     2.3770 C.ar         1 NAD377   0.0000
    38 C3N         24.6780    52.3790     2.9940 C.ar         1 NAD377   0.0000
    39 C7N         24.5590    51.1360     3.8320 C.2          1 NAD377   0.0000
    40 O7N         23.4730    50.9510     4.5510 O.2          1 NAD377   0.0000
    41 N7N         25.4760    50.2480     3.8760 N.am         1 NAD377   0.0000
    42 C4N         23.6090    53.2660     2.8140 C.ar         1 NAD377   0.0000
    43 C5N         23.7900    54.3960     2.0160 C.ar         1 NAD377   0.0000
    44 C6N         25.0320    54.6300     1.4230 C.ar         1 NAD377   0.0000
    45 H5B1        31.5437    60.6498     0.5754 H            1 NAD377   0.0000
    46 H5B2        31.4216    59.7233     1.9146 H            1 NAD377   0.0000
    47 H4B         32.5254    61.3999     3.1801 H            1 NAD377   0.0000
    48 H3B         32.0714    63.0140     0.9958 H            1 NAD377   0.0000
    49 H5          33.3175    63.5877     3.4598 H            1 NAD377   0.0000
    50 H2B         34.0385    62.6586     0.0466 H            1 NAD377   0.0000
    51 H7          35.0199    64.2543     2.1553 H            1 NAD377   0.0000
    52 H1B         35.1627    61.9494     2.5918 H            1 NAD377   0.0000
    53 H8A         35.1161    60.6220    -0.9627 H            1 NAD377   0.0000
    54 H6A1        40.8975    58.8777     0.1866 H            1 NAD377   0.0000
    55 H6A2        39.6216    58.9255    -0.9837 H            1 NAD377   0.0000
    56 H2A         39.2392    60.8604     3.8862 H            1 NAD377   0.0000
    57 H5D1        29.3626    57.0543     2.4227 H            1 NAD377   0.0000
    58 H5D2        29.6656    57.6327     0.9260 H            1 NAD377   0.0000
    59 H4D         29.6900    55.2804     0.7776 H            1 NAD377   0.0000
    60 H3D         27.2964    56.4175    -0.3517 H            1 NAD377   0.0000
    61 H17         28.4881    55.5327    -2.3281 H            1 NAD377   0.0000
    62 H2D         26.5103    54.3620    -0.8333 H            1 NAD377   0.0000
    63 H19         28.4148    53.8192    -2.0797 H            1 NAD377   0.0000
    64 H1D         27.8940    53.0877     1.1503 H            1 NAD377   0.0000
    65 H2N         26.6527    52.0373     2.5065 H            1 NAD377   0.0000
    66 H7N1        25.3579    49.4351     4.4463 H            1 NAD377   0.0000
    67 H7N2        26.3121    50.3656     3.3401 H            1 NAD377   0.0000
    68 H4N         22.7271    53.0915     3.2520 H            1 NAD377   0.0000
    69 H5N         23.0345    55.0346     1.8696 H            1 NAD377   0.0000
    70 H6N         25.1755    55.4465     0.8638 H            1 NAD377   0.0000
@<TRIPOS>BOND
     1    1    2      ar
     2    1    3      ar
     3    1    4       1
     4    1   23       1
     5    4    5       1
     6    5    6       1
     7    6    7       1
     8    6    8       1
     9    7   12       1
    10    8    9       1
    11    8   10       1
    12   10   11       1
    13   10   12       1
    14   12   13       1
    15   13   14       1
    16   13   22       1
    17   14   15       2
    18   15   16       1
    19   16   17      ar
    20   16   22      ar
    21   17   18       1
    22   17   19      ar
    23   19   20      ar
    24   20   21      ar
    25   21   22      ar
    26   23   24       1
    27   24   25      ar
    28   24   26      ar
    29   24   27       1
    30   27   28       1
    31   28   29       1
    32   29   30       1
    33   29   31       1
    34   30   35       1
    35   31   32       1
    36   31   33       1
    37   33   34       1
    38   33   35       1
    39   35   36       1
    40   36   37      ar
    41   36   44      ar
    42   37   38      ar
    43   38   39       1
    44   38   42      ar
    45   39   40       2
    46   39   41      am
    47   42   43      ar
    48   43   44      ar
    49   44   70       1
    50    5   45       1
    51    5   46       1
    52    6   47       1
    53    8   48       1
    54    9   49       1
    55   10   50       1
    56   11   51       1
    57   12   52       1
    58   14   53       1
    59   18   54       1
    60   18   55       1
    61   20   56       1
    62   43   69       1
    63   28   57       1
    64   28   58       1
    65   29   59       1
    66   31   60       1
    67   32   61       1
    68   33   62       1
    69   34   63       1
    70   35   64       1
    71   37   65       1
    72   41   66       1
    73   41   67       1
    74   42   68       1
@<TRIPOS>SUBSTRUCTURE
     1 NAD377      1 GROUP             4 A     NAD     0 **** NAD A 377
