@<TRIPOS>MOLECULE
3s6f_COA_1_ligand
   81    83     1     0     0
SMALL
NO_CHARGES


@<TRIPOS>ATOM
     1 N1A         26.3680    17.5900    26.7310 N.ar         1 COA200   0.0000
     2 C2A         27.1670    17.0000    25.7750 C.ar         1 COA200   0.0000
     3 N3A         27.8350    17.7380    24.8250 N.ar         1 COA200   0.0000
     4 C4A         27.6730    19.0850    24.8320 C.ar         1 COA200   0.0000
     5 C5A         26.8480    19.7020    25.7670 C.ar         1 COA200   0.0000
     6 C6A         26.2070    18.9480    26.7480 C.ar         1 COA200   0.0000
     7 N6A         25.4390    19.5070    27.6910 N.pl3        1 COA200   0.0000
     8 N7A         26.8840    21.0380    25.5160 N.2          1 COA200   1.0000
     9 C8A         27.6910    21.2440    24.4530 C.2          1 COA200   0.0000
    10 N9A         28.1850    20.0480    24.0150 N.pl3        1 COA200   0.0000
    11 C1B         29.1300    19.8300    22.9220 C.3          1 COA200   0.0000
    12 C2B         28.5380    18.9790    21.8060 C.3          1 COA200   0.0000
    13 O2B         29.6050    18.2450    21.2900 O.3          1 COA200   0.0000
    14 C3B         28.0760    19.9700    20.7490 C.3          1 COA200   0.0000
    15 O3B         28.0080    19.4340    19.4390 O.3          1 COA200   0.0000
    16 P3B         26.5910    18.9200    18.8350 P.3          1 COA200   0.0000
    17 O7A         26.1060    17.8350    19.7630 O.co2        1 COA200   0.0000
    18 O8A         25.6390    20.0890    18.8230 O.co2        1 COA200  -1.0000
    19 O9A         26.9210    18.4180    17.4500 O.co2        1 COA200  -1.0000
    20 C4B         29.1570    21.0260    20.9150 C.3          1 COA200   0.0000
    21 O4B         29.4590    21.0500    22.3040 O.3          1 COA200   0.0000
    22 C5B         28.7260    22.4040    20.4480 C.3          1 COA200   0.0000
    23 O5B         29.8750    23.2210    20.3140 O.3          1 COA200   0.0000
    24 P1A         29.6690    24.6950    19.6870 P.3          1 COA200   0.0000
    25 O1A         31.0400    25.2580    19.5590 O.co2        1 COA200   0.0000
    26 O2A         28.7890    24.6860    18.4710 O.co2        1 COA200  -1.0000
    27 O3A         28.9720    25.4300    20.9200 O.3          1 COA200   0.0000
    28 P2A         27.4350    25.8560    21.1040 P.3          1 COA200   0.0000
    29 O4A         26.5520    24.7010    20.8200 O.co2        1 COA200   0.0000
    30 O5A         27.2170    27.1160    20.3420 O.co2        1 COA200  -1.0000
    31 O6A         27.4760    26.2220    22.6500 O.3          1 COA200   0.0000
    32 CBP         27.3720    25.6250    24.9620 C.3          1 COA200   0.0000
    33 CCP         27.9750    25.2890    23.6080 C.3          1 COA200   0.0000
    34 CDP         27.7440    27.0720    25.3380 C.3          1 COA200   0.0000
    35 CEP         27.9610    24.6660    26.0210 C.3          1 COA200   0.0000
    36 CAP         25.8510    25.4370    24.8190 C.3          1 COA200   0.0000
    37 OAP         25.5180    24.0640    24.7250 O.3          1 COA200   0.0000
    38 C9P         25.1230    26.0270    26.0040 C.2          1 COA200   0.0000
    39 O9P         24.7980    27.3140    26.0230 O.2          1 COA200   0.0000
    40 N8P         24.7500    25.2490    27.0110 N.am         1 COA200   0.0000
    41 C7P         24.0460    25.7720    28.1760 C.3          1 COA200   0.0000
    42 C6P         24.9420    26.5480    29.1520 C.3          1 COA200   0.0000
    43 C5P         26.2090    25.7880    29.4220 C.2          1 COA200   0.0000
    44 O5P         26.1530    24.5870    29.7010 O.2          1 COA200   0.0000
    45 N4P         27.3420    26.5020    29.3510 N.am         1 COA200   0.0000
    46 C3P         28.6160    26.0080    29.8150 C.3          1 COA200   0.0000
    47 C2P         28.9390    26.7090    31.1340 C.3          1 COA200   0.0000
    48 S1P         27.8720    26.1730    32.5140 S.3          1 COA200   0.0000
    49 H2A         27.2641    16.0047    25.7718 H            1 COA200   0.0000
    50 H6A1        25.3151    20.4991    27.7117 H            1 COA200   0.0000
    51 H6A2        24.9891    18.9326    28.3748 H            1 COA200   0.0000
    52 H8A         27.8956    22.1353    24.0485 H            1 COA200   0.0000
    53 H1B         29.9590    19.3956    23.2742 H            1 COA200   0.0000
    54 H2B         27.7945    18.3932    22.1285 H            1 COA200   0.0000
    55 H7          29.9989    17.6767    22.0124 H            1 COA200   0.0000
    56 H3B         27.1878    20.3506    21.0062 H            1 COA200   0.0000
    57 H4B         29.9711    20.7461    20.4062 H            1 COA200   0.0000
    58 H5B1        28.1037    22.8068    21.1191 H            1 COA200   0.0000
    59 H5B2        28.2617    22.3297    19.5654 H            1 COA200   0.0000
    60 HCP1        28.9717    25.3546    23.6563 H            1 COA200   0.0000
    61 HCP2        27.7145    24.3606    23.3430 H            1 COA200   0.0000
    62 HDP1        27.3489    27.2970    26.2287 H            1 COA200   0.0000
    63 HDP2        28.7392    27.1594    25.3831 H            1 COA200   0.0000
    64 HDP3        27.3854    27.6988    24.6463 H            1 COA200   0.0000
    65 HEP1        27.5707    24.8784    26.9168 H            1 COA200   0.0000
    66 HEP2        27.7392    23.7222    25.7760 H            1 COA200   0.0000
    67 HEP3        28.9542    24.7769    26.0554 H            1 COA200   0.0000
    68 HAP         25.5448    25.9013    23.9879 H            1 COA200   0.0000
    69 H21         25.5223    23.7849    23.7647 H            1 COA200   0.0000
    70 H8P         24.9583    24.2718    26.9701 H            1 COA200   0.0000
    71 H7P1        23.6377    25.0030    28.6679 H            1 COA200   0.0000
    72 H7P2        23.3233    26.3854    27.8573 H            1 COA200   0.0000
    73 H6P1        24.4506    26.6844    30.0122 H            1 COA200   0.0000
    74 H6P2        25.1699    27.4365    28.7538 H            1 COA200   0.0000
    75 H4P         27.3021    27.4206    28.9578 H            1 COA200   0.0000
    76 H3P1        29.3254    26.2106    29.1399 H            1 COA200   0.0000
    77 H3P2        28.5653    25.0197    29.9589 H            1 COA200   0.0000
    78 H2P1        28.8232    27.6941    31.0069 H            1 COA200   0.0000
    79 H2P2        29.8900    26.5133    31.3732 H            1 COA200   0.0000
    80 H1P         27.9838    25.1900    32.6595 H            1 COA200   0.0000
    81 H7A         26.3975    21.7450    26.0293 H            1 COA200   0.0000
@<TRIPOS>BOND
     1    1    2      ar
     2    1    6      ar
     3    2    3      ar
     4    3    4      ar
     5    4    5      ar
     6    4   10       1
     7    5    6      ar
     8    5    8       1
     9    6    7       1
    10    8    9       2
    11    9   10       1
    12   10   11       1
    13   11   12       1
    14   11   21       1
    15   12   13       1
    16   12   14       1
    17   14   15       1
    18   14   20       1
    19   15   16       1
    20   16   17      ar
    21   16   18      ar
    22   16   19      ar
    23   20   21       1
    24   20   22       1
    25   22   23       1
    26   23   24       1
    27   24   25      ar
    28   24   26      ar
    29   24   27       1
    30   27   28       1
    31   28   29      ar
    32   28   30      ar
    33   28   31       1
    34   31   33       1
    35   32   33       1
    36   32   34       1
    37   32   35       1
    38   32   36       1
    39   36   37       1
    40   36   38       1
    41   38   39       2
    42   38   40      am
    43   40   41       1
    44   41   42       1
    45   42   43       1
    46   43   44       2
    47   43   45      am
    48   45   46       1
    49   46   47       1
    50   47   48       1
    51    2   49       1
    52    7   50       1
    53    7   51       1
    54    9   52       1
    55   11   53       1
    56   12   54       1
    57   13   55       1
    58   14   56       1
    59   48   80       1
    60   47   79       1
    61   20   57       1
    62   22   58       1
    63   22   59       1
    64   47   78       1
    65   46   77       1
    66   33   60       1
    67   33   61       1
    68   34   62       1
    69   34   63       1
    70   34   64       1
    71   35   65       1
    72   35   66       1
    73   35   67       1
    74   36   68       1
    75   37   69       1
    76   40   70       1
    77   41   71       1
    78   41   72       1
    79   42   73       1
    80   42   74       1
    81   45   75       1
    82   46   76       1
    83    8   81       1
@<TRIPOS>SUBSTRUCTURE
     1 COA200      1 GROUP             4 A     COA     0 **** COA A 200
