@<TRIPOS>MOLECULE
2cvj_FAD_1_ligand
   84    89     1     0     0
SMALL
NO_CHARGES


@<TRIPOS>ATOM
     1 PA           5.9600    31.1420    10.6010 P.3          1 FAD2304   0.0000
     2 O1A          4.6810    31.7280    10.1140 O.co2        1 FAD2304   0.0000
     3 O2A          6.3650    31.3160    12.0270 O.co2        1 FAD2304  -1.0000
     4 O5B          5.8710    29.6140    10.2120 O.3          1 FAD2304   0.0000
     5 C5B          6.8700    28.6160    10.4850 C.3          1 FAD2304   0.0000
     6 C4B          6.0870    27.3340    10.3740 C.3          1 FAD2304   0.0000
     7 O4B          6.9470    26.1800    10.1680 O.3          1 FAD2304   0.0000
     8 C3B          5.1530    27.0010    11.5700 C.3          1 FAD2304   0.0000
     9 O3B          3.8000    26.7410    11.2350 O.3          1 FAD2304   0.0000
    10 C2B          5.8700    25.8320    12.2410 C.3          1 FAD2304   0.0000
    11 O2B          5.1010    24.9630    13.0400 O.3          1 FAD2304   0.0000
    12 C1B          6.5320    25.1480    11.0650 C.3          1 FAD2304   0.0000
    13 N9A          7.6500    24.2820    11.4090 N.pl3        1 FAD2304   0.0000
    14 C8A          8.8270    24.5780    12.0460 C.2          1 FAD2304   0.0000
    15 N7A          9.6220    23.5360    12.2090 N.2          1 FAD2304   0.0000
    16 C5A          8.9110    22.4890    11.6380 C.ar         1 FAD2304   0.0000
    17 C6A          9.2060    21.0820    11.4860 C.ar         1 FAD2304   0.0000
    18 N6A         10.3460    20.5480    11.9360 N.pl3        1 FAD2304   0.0000
    19 N1A          8.2770    20.2910    10.8620 N.ar         1 FAD2304   0.0000
    20 C2A          7.1200    20.8630    10.4140 C.ar         1 FAD2304   0.0000
    21 N3A          6.7430    22.1560    10.5040 N.ar         1 FAD2304   0.0000
    22 C4A          7.7250    22.9270    11.1510 C.ar         1 FAD2304   0.0000
    23 N1           3.3600    40.0140    11.2750 N.2          1 FAD2304   0.0000
    24 C2           2.6770    40.9080    10.4920 C.2          1 FAD2304   0.0000
    25 O2           2.9710    41.1190     9.2930 O.2          1 FAD2304   0.0000
    26 N3           1.5990    41.6260    11.0390 N.pl3        1 FAD2304   0.0000
    27 C4           1.1480    41.5020    12.3610 C.2          1 FAD2304   0.0000
    28 O4           0.1760    42.1900    12.7530 O.2          1 FAD2304   0.0000
    29 C4X          1.8650    40.5690    13.1680 C.2          1 FAD2304   0.0000
    30 N5           1.4760    40.3760    14.5230 N.2          1 FAD2304   0.0000
    31 C5X          2.1890    39.4480    15.2960 C.ar         1 FAD2304   0.0000
    32 C6           1.8120    39.2300    16.6640 C.ar         1 FAD2304   0.0000
    33 C7           2.4790    38.3170    17.4750 C.ar         1 FAD2304   0.0000
    34 C7M          1.9940    38.1570    18.9230 C.3          1 FAD2304   0.0000
    35 C8           3.5680    37.5630    16.9570 C.ar         1 FAD2304   0.0000
    36 C8M          4.3440    36.5430    17.7760 C.3          1 FAD2304   0.0000
    37 C9           3.9640    37.7710    15.5820 C.ar         1 FAD2304   0.0000
    38 C9A          3.3020    38.6930    14.7480 C.ar         1 FAD2304   0.0000
    39 N10          3.6830    38.9140    13.3670 N.pl3        1 FAD2304   0.0000
    40 C10          2.9670    39.8410    12.5860 C.2          1 FAD2304   0.0000
    41 C1'          4.8230    38.1600    12.7870 C.3          1 FAD2304   0.0000
    42 C2'          4.4210    37.1600    11.7190 C.3          1 FAD2304   0.0000
    43 O2'          3.4410    36.2810    12.2740 O.3          1 FAD2304   0.0000
    44 C3'          5.6690    36.4200    11.2210 C.3          1 FAD2304   0.0000
    45 O3'          6.6070    37.3630    10.7190 O.3          1 FAD2304   0.0000
    46 C4'          5.3400    35.4120    10.0920 C.3          1 FAD2304   0.0000
    47 O4'          4.3780    34.4570    10.5490 O.3          1 FAD2304   0.0000
    48 C5'          6.6180    34.7190     9.6460 C.3          1 FAD2304   0.0000
    49 O5'          6.3230    33.7970     8.5950 O.3          1 FAD2304   0.0000
    50 P            7.2510    32.5310     8.3340 P.3          1 FAD2304   0.0000
    51 O1P          6.6640    31.8170     7.1980 O.co2        1 FAD2304   0.0000
    52 O2P          8.6710    32.9870     8.2070 O.co2        1 FAD2304  -1.0000
    53 O3P          7.1540    31.6260     9.6600 O.3          1 FAD2304   0.0000
    54 H5B1         7.2519    28.7282    11.4024 H            1 FAD2304   0.0000
    55 H5B2         7.6076    28.6487     9.8106 H            1 FAD2304   0.0000
    56 H4B          5.5069    27.4148     9.5635 H            1 FAD2304   0.0000
    57 H3B          5.1710    27.7768    12.2007 H            1 FAD2304   0.0000
    58 H5           3.7547    25.9573    10.6155 H            1 FAD2304   0.0000
    59 H2B          6.5940    26.2115    12.8171 H            1 FAD2304   0.0000
    60 H7           4.7453    24.2182    12.4754 H            1 FAD2304   0.0000
    61 H1B          5.8418    24.5931    10.6007 H            1 FAD2304   0.0000
    62 H8A          9.0622    25.4983    12.3586 H            1 FAD2304   0.0000
    63 H6A1        10.5220    19.5709    11.8162 H            1 FAD2304   0.0000
    64 H6A2        11.0228    21.1256    12.3924 H            1 FAD2304   0.0000
    65 H2A          6.4726    20.2479     9.9639 H            1 FAD2304   0.0000
    66 H13          1.1200    42.2707    10.4432 H            1 FAD2304   0.0000
    67 H14          1.0474    39.7497    17.0453 H            1 FAD2304   0.0000
    68 H7M1         2.5568    37.4747    19.3896 H            1 FAD2304   0.0000
    69 H7M2         2.0698    39.0333    19.3987 H            1 FAD2304   0.0000
    70 H7M3         1.0395    37.8588    18.9238 H            1 FAD2304   0.0000
    71 H8M1         5.0617    36.1374    17.2099 H            1 FAD2304   0.0000
    72 H8M2         4.7582    36.9953    18.5659 H            1 FAD2304   0.0000
    73 H8M3         3.7224    35.8257    18.0907 H            1 FAD2304   0.0000
    74 H21          4.7300    37.2450    15.2125 H            1 FAD2304   0.0000
    75 H1'1         5.2808    37.6647    13.5253 H            1 FAD2304   0.0000
    76 H1'2         5.4595    38.8155    12.3806 H            1 FAD2304   0.0000
    77 H2'          4.0124    37.6547    10.9520 H            1 FAD2304   0.0000
    78 H25          3.5117    35.3844    11.8369 H            1 FAD2304   0.0000
    79 H3'          6.0818    35.9270    11.9868 H            1 FAD2304   0.0000
    80 H27          7.5345    37.0129    10.8503 H            1 FAD2304   0.0000
    81 H4'          4.9556    35.9112     9.3155 H            1 FAD2304   0.0000
    82 H29          4.7676    33.5378    10.4915 H            1 FAD2304   0.0000
    83 H5'1         7.0161    34.2255    10.4193 H            1 FAD2304   0.0000
    84 H5'2         7.2691    35.4024     9.3159 H            1 FAD2304   0.0000
@<TRIPOS>BOND
     1    1    2      ar
     2    1    3      ar
     3    1    4       1
     4    1   53       1
     5    4    5       1
     6    5    6       1
     7    6    7       1
     8    6    8       1
     9    7   12       1
    10    8    9       1
    11    8   10       1
    12   10   11       1
    13   10   12       1
    14   12   13       1
    15   13   14       1
    16   13   22       1
    17   14   15       2
    18   15   16       1
    19   16   17      ar
    20   16   22      ar
    21   17   18       1
    22   17   19      ar
    23   19   20      ar
    24   20   21      ar
    25   21   22      ar
    26   23   24       1
    27   23   40       2
    28   24   25       2
    29   24   26       1
    30   26   27       1
    31   27   28       2
    32   27   29       1
    33   29   30       2
    34   29   40       1
    35   30   31       1
    36   31   32      ar
    37   31   38      ar
    38   32   33      ar
    39   33   34       1
    40   33   35      ar
    41   35   36       1
    42   35   37      ar
    43   37   38      ar
    44   38   39       1
    45   39   40       1
    46   39   41       1
    47   41   42       1
    48   42   43       1
    49   42   44       1
    50   44   45       1
    51   44   46       1
    52   46   47       1
    53   46   48       1
    54   48   49       1
    55   49   50       1
    56   50   51      ar
    57   50   52      ar
    58   50   53       1
    59   48   84       1
    60    5   54       1
    61    5   55       1
    62    6   56       1
    63    8   57       1
    64    9   58       1
    65   10   59       1
    66   11   60       1
    67   12   61       1
    68   14   62       1
    69   18   63       1
    70   18   64       1
    71   20   65       1
    72   26   66       1
    73   32   67       1
    74   34   68       1
    75   34   69       1
    76   34   70       1
    77   36   71       1
    78   36   72       1
    79   36   73       1
    80   37   74       1
    81   41   75       1
    82   41   76       1
    83   42   77       1
    84   43   78       1
    85   44   79       1
    86   45   80       1
    87   46   81       1
    88   47   82       1
    89   48   83       1
@<TRIPOS>SUBSTRUCTURE
     1 FAD2304     1 GROUP             4 A     FAD     0 **** FAD A2304
