@<TRIPOS>MOLECULE
4boe_CLR_1_ligand
   74    77     1     0     0
SMALL
NO_CHARGES


@<TRIPOS>ATOM
     1 C1          15.1540    33.3990    16.2300 C.3          1 CLR575   0.0000
     2 O1          15.6050    30.9790    19.0700 O.3          1 CLR575   0.0000
     3 C2          15.1620    32.8660    17.6610 C.3          1 CLR575   0.0000
     4 C3          15.4950    31.3900    17.7000 C.3          1 CLR575   0.0000
     5 C4          16.8240    31.1300    17.0210 C.3          1 CLR575   0.0000
     6 C5          16.9050    31.7290    15.6330 C.2          1 CLR575   0.0000
     7 C6          17.3240    30.9930    14.6110 C.2          1 CLR575   0.0000
     8 C7          17.4440    31.4690    13.1980 C.3          1 CLR575   0.0000
     9 C8          17.4160    32.9890    13.0900 C.3          1 CLR575   0.0000
    10 C9          16.2890    33.5510    13.9870 C.3          1 CLR575   0.0000
    11 C10         16.4890    33.1960    15.4950 C.3          1 CLR575   0.0000
    12 C11         16.0580    35.0540    13.7450 C.3          1 CLR575   0.0000
    13 C12         15.8970    35.4200    12.2700 C.3          1 CLR575   0.0000
    14 C13         17.0700    34.9300    11.4020 C.3          1 CLR575   0.0000
    15 C14         17.1850    33.4100    11.6410 C.3          1 CLR575   0.0000
    16 C15         18.1660    32.9500    10.5560 C.3          1 CLR575   0.0000
    17 C16         17.7520    33.7880     9.3460 C.3          1 CLR575   0.0000
    18 C17         16.8300    34.9150     9.8740 C.3          1 CLR575   0.0000
    19 C18         18.3610    35.6940    11.7600 C.3          1 CLR575   0.0000
    20 C19         17.5720    34.0710    16.1650 C.3          1 CLR575   0.0000
    21 C20         16.9700    36.2200     9.0680 C.3          1 CLR575   0.0000
    22 C21         16.0420    37.3370     9.5680 C.3          1 CLR575   0.0000
    23 C22         16.7550    35.9670     7.5650 C.3          1 CLR575   0.0000
    24 C23         15.5150    35.1270     7.1720 C.3          1 CLR575   0.0000
    25 C24         15.3940    34.9630     5.6870 C.3          1 CLR575   0.0000
    26 C25         14.3840    34.0010     5.0990 C.3          1 CLR575   0.0000
    27 C26         13.5150    33.1360     5.9760 C.3          1 CLR575   0.0000
    28 C27         13.6920    34.4490     3.8360 C.3          1 CLR575   0.0000
    29 H1          14.9532    34.3782    16.2577 H            1 CLR575   0.0000
    30 H2          14.4360    32.9258    15.7196 H            1 CLR575   0.0000
    31 H3          14.7368    31.1437    19.5381 H            1 CLR575   0.0000
    32 H4          14.2582    33.0062    18.0652 H            1 CLR575   0.0000
    33 H5          15.8457    33.3677    18.1910 H            1 CLR575   0.0000
    34 H6          14.7737    30.8672    17.2457 H            1 CLR575   0.0000
    35 H7          16.9578    30.1415    16.9500 H            1 CLR575   0.0000
    36 H8          17.5514    31.5254    17.5819 H            1 CLR575   0.0000
    37 H9          17.5798    30.0451    14.8007 H            1 CLR575   0.0000
    38 H10         16.6825    31.0957    12.6681 H            1 CLR575   0.0000
    39 H11         18.3079    31.1365    12.8198 H            1 CLR575   0.0000
    40 H12         18.2935    33.3547    13.4004 H            1 CLR575   0.0000
    41 H13         15.4489    33.0901    13.7010 H            1 CLR575   0.0000
    42 H14         16.8407    35.5570    14.1117 H            1 CLR575   0.0000
    43 H15         15.2282    35.3283    14.2309 H            1 CLR575   0.0000
    44 H16         15.8362    36.4151    12.1926 H            1 CLR575   0.0000
    45 H17         15.0527    35.0069    11.9287 H            1 CLR575   0.0000
    46 H18         16.2975    33.0268    11.3850 H            1 CLR575   0.0000
    47 H19         18.0639    31.9729    10.3692 H            1 CLR575   0.0000
    48 H20         19.1111    33.1419    10.8204 H            1 CLR575   0.0000
    49 H21         17.2585    33.2203     8.6871 H            1 CLR575   0.0000
    50 H22         18.5600    34.1817     8.9076 H            1 CLR575   0.0000
    51 H23         15.8911    34.5986     9.7386 H            1 CLR575   0.0000
    52 H24         19.1126    35.3647    11.1884 H            1 CLR575   0.0000
    53 H25         18.2247    36.6718    11.6007 H            1 CLR575   0.0000
    54 H26         18.5828    35.5409    12.7230 H            1 CLR575   0.0000
    55 H27         18.4435    33.9436    15.6914 H            1 CLR575   0.0000
    56 H28         17.3023    35.0326    16.1139 H            1 CLR575   0.0000
    57 H29         17.6711    33.8031    17.1233 H            1 CLR575   0.0000
    58 H30         17.9100    36.5410     9.1836 H            1 CLR575   0.0000
    59 H31         16.1757    38.1561     9.0101 H            1 CLR575   0.0000
    60 H32         15.0908    37.0369     9.4969 H            1 CLR575   0.0000
    61 H33         16.2554    37.5453    10.5225 H            1 CLR575   0.0000
    62 H34         17.5644    35.4928     7.2186 H            1 CLR575   0.0000
    63 H35         16.6727    36.8570     7.1166 H            1 CLR575   0.0000
    64 H36         14.6940    35.5841     7.5141 H            1 CLR575   0.0000
    65 H37         15.5920    34.2224     7.5913 H            1 CLR575   0.0000
    66 H38         16.2921    34.6723     5.3570 H            1 CLR575   0.0000
    67 H39         15.1788    35.8663     5.3158 H            1 CLR575   0.0000
    68 H40         14.9999    33.3078     4.7247 H            1 CLR575   0.0000
    69 H41         12.9184    32.5738     5.4033 H            1 CLR575   0.0000
    70 H42         14.0929    32.5437     6.5374 H            1 CLR575   0.0000
    71 H43         12.9572    33.7167     6.5691 H            1 CLR575   0.0000
    72 H44         13.0510    33.7415     3.5382 H            1 CLR575   0.0000
    73 H45         13.1934    35.2977     4.0122 H            1 CLR575   0.0000
    74 H46         14.3727    34.6048     3.1202 H            1 CLR575   0.0000
@<TRIPOS>BOND
     1    1    3       1
     2    1   11       1
     3    2    4       1
     4    3    4       1
     5    4    5       1
     6    5    6       1
     7    6    7       2
     8    6   11       1
     9    7    8       1
    10    8    9       1
    11    9   10       1
    12    9   15       1
    13   10   11       1
    14   10   12       1
    15   11   20       1
    16   12   13       1
    17   13   14       1
    18   14   15       1
    19   14   18       1
    20   14   19       1
    21   15   16       1
    22   16   17       1
    23   17   18       1
    24   18   21       1
    25   21   22       1
    26   21   23       1
    27   23   24       1
    28   24   25       1
    29   25   26       1
    30   26   27       1
    31   26   28       1
    32    1   29       1
    33    1   30       1
    34    2   31       1
    35    3   32       1
    36    3   33       1
    37    4   34       1
    38    5   35       1
    39    5   36       1
    40    7   37       1
    41    8   38       1
    42    8   39       1
    43    9   40       1
    44   10   41       1
    45   12   42       1
    46   12   43       1
    47   13   44       1
    48   13   45       1
    49   15   46       1
    50   16   47       1
    51   16   48       1
    52   17   49       1
    53   17   50       1
    54   18   51       1
    55   19   52       1
    56   19   53       1
    57   19   54       1
    58   20   55       1
    59   20   56       1
    60   20   57       1
    61   21   58       1
    62   22   59       1
    63   22   60       1
    64   22   61       1
    65   23   62       1
    66   23   63       1
    67   24   64       1
    68   24   65       1
    69   25   66       1
    70   25   67       1
    71   26   68       1
    72   27   69       1
    73   27   70       1
    74   27   71       1
    75   28   72       1
    76   28   73       1
    77   28   74       1
@<TRIPOS>SUBSTRUCTURE
     1 CLR575      1 GROUP             4 A     CLR     0 **** CLR A 575
