@<TRIPOS>MOLECULE
1lj8_NAD_1_ligand
   70    74     1     0     0
SMALL
NO_CHARGES


@<TRIPOS>ATOM
     1 PA          46.6650    33.0620    21.9120 P.3          1 NAD1500   0.0000
     2 O1A         46.7730    34.3680    21.3140 O.co2        1 NAD1500   0.0000
     3 O2A         47.6830    32.5090    22.8500 O.co2        1 NAD1500  -1.0000
     4 O5B         46.5250    31.9470    20.7780 O.3          1 NAD1500   0.0000
     5 C5B         45.4870    32.0790    19.7580 C.3          1 NAD1500   0.0000
     6 C4B         45.8410    30.8890    18.8430 C.3          1 NAD1500   0.0000
     7 O4B         44.8150    30.8640    17.7660 O.3          1 NAD1500   0.0000
     8 C3B         47.1730    31.0230    18.0230 C.3          1 NAD1500   0.0000
     9 O3B         47.7080    29.6920    17.9070 O.3          1 NAD1500   0.0000
    10 C2B         46.7000    31.6120    16.6860 C.3          1 NAD1500   0.0000
    11 O2B         47.6060    31.3700    15.6170 O.3          1 NAD1500   0.0000
    12 C1B         45.4120    30.8390    16.4750 C.3          1 NAD1500   0.0000
    13 N9A         44.4830    31.4270    15.5630 N.pl3        1 NAD1500   0.0000
    14 C8A         43.9910    32.7130    15.4620 C.2          1 NAD1500   0.0000
    15 N7A         43.1090    32.8400    14.4970 N.2          1 NAD1500   0.0000
    16 C5A         43.0270    31.5700    13.9460 C.ar         1 NAD1500   0.0000
    17 C6A         42.2270    31.1140    12.8920 C.ar         1 NAD1500   0.0000
    18 N6A         41.3480    31.8450    12.2050 N.pl3        1 NAD1500   0.0000
    19 N1A         42.3480    29.7830    12.5180 N.ar         1 NAD1500   0.0000
    20 C2A         43.2270    28.9220    13.1730 C.ar         1 NAD1500   0.0000
    21 N3A         44.0150    29.3470    14.2360 N.ar         1 NAD1500   0.0000
    22 C4A         43.8720    30.6950    14.5770 C.ar         1 NAD1500   0.0000
    23 O3          45.2360    33.0300    22.6020 O.3          1 NAD1500   0.0000
    24 PN          44.6680    32.1690    23.8350 P.3          1 NAD1500   0.0000
    25 O1N         44.8300    32.9420    25.0700 O.co2        1 NAD1500   0.0000
    26 O2N         45.2970    30.8470    23.7680 O.co2        1 NAD1500  -1.0000
    27 O5D         43.1200    32.1330    23.5370 O.3          1 NAD1500   0.0000
    28 C5D         42.6930    31.4120    22.3890 C.3          1 NAD1500   0.0000
    29 C4D         41.2520    31.2070    22.5630 C.3          1 NAD1500   0.0000
    30 O4D         40.9100    30.2780    23.6120 O.3          1 NAD1500   0.0000
    31 C3D         40.3430    32.4650    22.8090 C.3          1 NAD1500   0.0000
    32 O3D         40.1260    33.2190    21.6220 O.3          1 NAD1500   0.0000
    33 C2D         39.1100    31.8800    23.4690 C.3          1 NAD1500   0.0000
    34 O2D         38.1440    31.4830    22.5050 O.3          1 NAD1500   0.0000
    35 C1D         39.6730    30.6760    24.2660 C.3          1 NAD1500   0.0000
    36 N1N         39.8960    30.9440    25.7000 N.ar         1 NAD1500   1.0000
    37 C2N         40.9510    31.7130    26.2250 C.ar         1 NAD1500   0.0000
    38 C3N         40.9650    31.9460    27.5760 C.ar         1 NAD1500   0.0000
    39 C7N         42.0930    32.8170    28.1610 C.2          1 NAD1500   0.0000
    40 O7N         41.9680    33.1800    29.3400 O.2          1 NAD1500   0.0000
    41 N7N         43.1010    33.2230    27.4180 N.am         1 NAD1500   0.0000
    42 C4N         39.8960    31.4250    28.4550 C.ar         1 NAD1500   0.0000
    43 C5N         38.8680    30.6210    27.8750 C.ar         1 NAD1500   0.0000
    44 C6N         38.8440    30.3630    26.4750 C.ar         1 NAD1500   0.0000
    45 H5B1        45.5546    32.9508    19.2729 H            1 NAD1500   0.0000
    46 H5B2        44.5712    31.9850    20.1486 H            1 NAD1500   0.0000
    47 H4B         45.8302    30.0327    19.3593 H            1 NAD1500   0.0000
    48 H3B         47.8193    31.6345    18.4796 H            1 NAD1500   0.0000
    49 H5          48.6141    29.6590    18.3289 H            1 NAD1500   0.0000
    50 H2B         46.5141    32.5903    16.7770 H            1 NAD1500   0.0000
    51 H7          48.3909    30.8514    15.9562 H            1 NAD1500   0.0000
    52 H1B         45.6136    29.8975    16.2049 H            1 NAD1500   0.0000
    53 H8A         44.2747    33.4645    16.0576 H            1 NAD1500   0.0000
    54 H6A1        40.8203    31.4275    11.4652 H            1 NAD1500   0.0000
    55 H6A2        41.2166    32.8105    12.4297 H            1 NAD1500   0.0000
    56 H2A         43.2925    27.9715    12.8694 H            1 NAD1500   0.0000
    57 H5D1        43.1661    30.5327    22.3335 H            1 NAD1500   0.0000
    58 H5D2        42.8724    31.9400    21.5589 H            1 NAD1500   0.0000
    59 H4D         40.9273    30.7941    21.7121 H            1 NAD1500   0.0000
    60 H3D         40.8014    33.0553    23.4734 H            1 NAD1500   0.0000
    61 H17         39.2326    33.6658    21.6696 H            1 NAD1500   0.0000
    62 H2D         38.7103    32.5477    24.0971 H            1 NAD1500   0.0000
    63 H19         38.5398    30.7902    21.9022 H            1 NAD1500   0.0000
    64 H1D         39.0229    29.9201    24.1882 H            1 NAD1500   0.0000
    65 H2N         41.6681    32.0781    25.6313 H            1 NAD1500   0.0000
    66 H7N1        43.8222    33.7878    27.8191 H            1 NAD1500   0.0000
    67 H7N2        43.1456    32.9666    26.4525 H            1 NAD1500   0.0000
    68 H4N         39.8930    31.6310    29.4335 H            1 NAD1500   0.0000
    69 H5N         38.1554    30.2340    28.4601 H            1 NAD1500   0.0000
    70 H6N         38.1285    29.8044    26.0554 H            1 NAD1500   0.0000
@<TRIPOS>BOND
     1    1    2      ar
     2    1    3      ar
     3    1    4       1
     4    1   23       1
     5    4    5       1
     6    5    6       1
     7    6    7       1
     8    6    8       1
     9    7   12       1
    10    8    9       1
    11    8   10       1
    12   10   11       1
    13   10   12       1
    14   12   13       1
    15   13   14       1
    16   13   22       1
    17   14   15       2
    18   15   16       1
    19   16   17      ar
    20   16   22      ar
    21   17   18       1
    22   17   19      ar
    23   19   20      ar
    24   20   21      ar
    25   21   22      ar
    26   23   24       1
    27   24   25      ar
    28   24   26      ar
    29   24   27       1
    30   27   28       1
    31   28   29       1
    32   29   30       1
    33   29   31       1
    34   30   35       1
    35   31   32       1
    36   31   33       1
    37   33   34       1
    38   33   35       1
    39   35   36       1
    40   36   37      ar
    41   36   44      ar
    42   37   38      ar
    43   38   39       1
    44   38   42      ar
    45   39   40       2
    46   39   41      am
    47   42   43      ar
    48   43   44      ar
    49   44   70       1
    50    5   45       1
    51    5   46       1
    52    6   47       1
    53    8   48       1
    54    9   49       1
    55   10   50       1
    56   11   51       1
    57   12   52       1
    58   14   53       1
    59   18   54       1
    60   18   55       1
    61   20   56       1
    62   43   69       1
    63   28   57       1
    64   28   58       1
    65   29   59       1
    66   31   60       1
    67   32   61       1
    68   33   62       1
    69   34   63       1
    70   35   64       1
    71   37   65       1
    72   41   66       1
    73   41   67       1
    74   42   68       1
@<TRIPOS>SUBSTRUCTURE
     1 NAD1500     1 GROUP             4 A     NAD     0 **** NAD A1500
