@<TRIPOS>MOLECULE
4zzj_CNA_1_ligand
   72    76     1     0     0
SMALL
NO_CHARGES


@<TRIPOS>ATOM
     1 PA          13.7520    60.6730    21.5200 P.3          1 CNA702   0.0000
     2 O1A         12.9200    59.3190    21.1690 O.co2        1 CNA702   0.0000
     3 O2A         15.1150    60.3630    22.0130 O.co2        1 CNA702  -1.0000
     4 O5B         13.7270    61.5770    20.2060 O.3          1 CNA702   0.0000
     5 C5B         14.4400    62.8100    20.1380 C.3          1 CNA702   0.0000
     6 C4B         14.2090    63.4100    18.7510 C.3          1 CNA702   0.0000
     7 O4B         14.7140    64.7640    18.7210 O.3          1 CNA702   0.0000
     8 C3B         15.0080    62.6020    17.7360 C.3          1 CNA702   0.0000
     9 O3B         14.2440    62.4570    16.5200 O.3          1 CNA702   0.0000
    10 C2B         16.2540    63.4460    17.5120 C.3          1 CNA702   0.0000
    11 O2B         16.7630    63.2570    16.1760 O.3          1 CNA702   0.0000
    12 C1B         15.7170    64.8520    17.6750 C.3          1 CNA702   0.0000
    13 N9A         16.7650    65.8060    18.1200 N.pl3        1 CNA702   0.0000
    14 C8A         17.8100    65.5620    18.9090 C.2          1 CNA702   0.0000
    15 N7A         18.4810    66.7020    19.0600 N.2          1 CNA702   0.0000
    16 C5A         17.8520    67.6530    18.3700 C.ar         1 CNA702   0.0000
    17 C6A         18.1190    68.9500    18.2000 C.ar         1 CNA702   0.0000
    18 N6A         19.2030    69.4180    18.8130 N.pl3        1 CNA702   0.0000
    19 N1A         17.3360    69.7390    17.4500 N.ar         1 CNA702   0.0000
    20 C2A         16.2120    69.1840    16.8290 C.ar         1 CNA702   0.0000
    21 N3A         15.9560    67.8230    17.0230 N.ar         1 CNA702   0.0000
    22 C4A         16.7840    67.0960    17.7910 C.ar         1 CNA702   0.0000
    23 O3          12.8750    61.4830    22.6200 O.3          1 CNA702   0.0000
    24 PN          11.2900    61.7200    22.4360 P.3          1 CNA702   0.0000
    25 O1N         10.9620    63.0490    23.2910 O.co2        1 CNA702   0.0000
    26 O2N         10.8220    61.8270    21.0260 O.co2        1 CNA702  -1.0000
    27 O5D         10.5440    60.5040    23.2010 O.3          1 CNA702   0.0000
    28 C5D         10.1650    60.6140    24.5680 C.3          1 CNA702   0.0000
    29 C4D         11.0090    59.6740    25.4310 C.3          1 CNA702   0.0000
    30 C4'         12.4280    60.2240    25.6270 C.3          1 CNA702   0.0000
    31 C3D         10.3880    59.6510    26.8160 C.3          1 CNA702   0.0000
    32 O3D         10.4860    58.3240    27.3440 O.3          1 CNA702   0.0000
    33 C2D         11.2340    60.6000    27.6530 C.3          1 CNA702   0.0000
    34 O2D         11.1050    60.2640    29.0470 O.3          1 CNA702   0.0000
    35 C1D         12.6320    60.2930    27.1490 C.3          1 CNA702   0.0000
    36 N1N         13.6370    61.3330    27.5220 N.ar         1 CNA702   1.0000
    37 C2N         13.2410    62.5920    28.0090 C.ar         1 CNA702   0.0000
    38 C3N         14.2060    63.5460    28.3400 C.ar         1 CNA702   0.0000
    39 C7N         13.8260    64.7990    28.8310 C.2          1 CNA702   0.0000
    40 O7N         12.7020    64.9920    29.2850 O.2          1 CNA702   0.0000
    41 N7N         14.7690    65.7360    28.8070 N.am         1 CNA702   0.0000
    42 C4N         15.5580    63.2480    28.1750 C.ar         1 CNA702   0.0000
    43 C5N         15.9640    62.0080    27.6910 C.ar         1 CNA702   0.0000
    44 C6N         15.0070    61.0530    27.3670 C.ar         1 CNA702   0.0000
    45 H5B1        15.4164    62.6462    20.2791 H            1 CNA702   0.0000
    46 H5B2        14.1023    63.4370    20.8400 H            1 CNA702   0.0000
    47 H4B         13.2358    63.3949    18.5214 H            1 CNA702   0.0000
    48 H3B         15.2505    61.7066    18.1096 H            1 CNA702   0.0000
    49 H5          14.7713    61.9264    15.8563 H            1 CNA702   0.0000
    50 H2B         16.9542    63.2451    18.1971 H            1 CNA702   0.0000
    51 H7          17.5803    63.8188    16.0481 H            1 CNA702   0.0000
    52 H1B         15.3016    65.1661    16.8213 H            1 CNA702   0.0000
    53 H8A         18.0481    64.6799    19.3155 H            1 CNA702   0.0000
    54 H6A1        19.4523    70.3821    18.7213 H            1 CNA702   0.0000
    55 H6A2        19.7686    68.8057    19.3655 H            1 CNA702   0.0000
    56 H2A         15.6085    69.7448    16.2622 H            1 CNA702   0.0000
    57 H5D1         9.1996    60.3712    24.6631 H            1 CNA702   0.0000
    58 H5D2        10.3036    61.5559    24.8739 H            1 CNA702   0.0000
    59 H4D         11.0344    58.7553    25.0368 H            1 CNA702   0.0000
    60 H4'1        12.5096    61.1344    25.2214 H            1 CNA702   0.0000
    61 H4'2        13.1009    59.6123    25.2111 H            1 CNA702   0.0000
    62 H3D          9.4355    59.9540    26.7855 H            1 CNA702   0.0000
    63 H19          9.7185    58.1536    27.9620 H            1 CNA702   0.0000
    64 H2D         10.9869    61.5541    27.4837 H            1 CNA702   0.0000
    65 H21         10.4883    59.4831    29.1460 H            1 CNA702   0.0000
    66 H1D         12.9262    59.4007    27.4913 H            1 CNA702   0.0000
    67 H2N         12.2698    62.8037    28.1181 H            1 CNA702   0.0000
    68 H7N1        14.5681    66.6563    29.1427 H            1 CNA702   0.0000
    69 H7N2        15.6792    65.5204    28.4532 H            1 CNA702   0.0000
    70 H4N         16.2460    63.9353    28.4078 H            1 CNA702   0.0000
    71 H5N         16.9366    61.8054    27.5771 H            1 CNA702   0.0000
    72 H6N         15.2947    60.1600    27.0210 H            1 CNA702   0.0000
@<TRIPOS>BOND
     1    1    2      ar
     2    1    3      ar
     3    1    4       1
     4    1   23       1
     5    4    5       1
     6    5    6       1
     7    6    7       1
     8    6    8       1
     9    7   12       1
    10    8    9       1
    11    8   10       1
    12   10   11       1
    13   10   12       1
    14   12   13       1
    15   13   14       1
    16   13   22       1
    17   14   15       2
    18   15   16       1
    19   16   17      ar
    20   16   22      ar
    21   17   18       1
    22   17   19      ar
    23   19   20      ar
    24   20   21      ar
    25   21   22      ar
    26   23   24       1
    27   24   25      ar
    28   24   26      ar
    29   24   27       1
    30   27   28       1
    31   28   29       1
    32   29   30       1
    33   29   31       1
    34   30   35       1
    35   31   32       1
    36   31   33       1
    37   33   34       1
    38   33   35       1
    39   35   36       1
    40   36   37      ar
    41   36   44      ar
    42   37   38      ar
    43   38   39       1
    44   38   42      ar
    45   39   40       2
    46   39   41      am
    47   42   43      ar
    48   43   44      ar
    49   44   72       1
    50    5   45       1
    51    5   46       1
    52    6   47       1
    53    8   48       1
    54    9   49       1
    55   10   50       1
    56   11   51       1
    57   12   52       1
    58   14   53       1
    59   18   54       1
    60   18   55       1
    61   20   56       1
    62   43   71       1
    63   28   57       1
    64   28   58       1
    65   29   59       1
    66   30   60       1
    67   30   61       1
    68   31   62       1
    69   32   63       1
    70   33   64       1
    71   34   65       1
    72   35   66       1
    73   37   67       1
    74   41   68       1
    75   41   69       1
    76   42   70       1
@<TRIPOS>SUBSTRUCTURE
     1 CNA702      1 GROUP             4 A     CNA     0 **** CNA A 702
