@<TRIPOS>MOLECULE
1w7i_ADP_1_ligand
   39    41     1     0     0
SMALL
NO_CHARGES


@<TRIPOS>ATOM
     1 PB           2.9000     5.1800    56.4080 P.3          1 ADP1796   0.0000
     2 O1B          1.9620     5.4470    57.5150 O.co2        1 ADP1796   0.0000
     3 O2B          2.5940     4.0130    55.4140 O.co2        1 ADP1796  -1.0000
     4 O3B          4.0620     4.5980    57.2160 O.co2        1 ADP1796  -1.0000
     5 PA           2.6460     7.8730    56.2720 P.3          1 ADP1796   0.0000
     6 O1A          2.7700     7.9280    57.7310 O.co2        1 ADP1796   0.0000
     7 O2A          1.1870     7.9310    55.7710 O.co2        1 ADP1796  -1.0000
     8 O3A          3.2960     6.5420    55.6880 O.3          1 ADP1796   0.0000
     9 O5'          3.4920     9.0950    55.6600 O.3          1 ADP1796   0.0000
    10 C5'          4.8740     9.1310    55.6530 C.3          1 ADP1796   0.0000
    11 C4'          5.2200    10.5510    55.2610 C.3          1 ADP1796   0.0000
    12 O4'          5.0640    10.7460    53.8640 O.3          1 ADP1796   0.0000
    13 C3'          4.3150    11.5520    55.9550 C.3          1 ADP1796   0.0000
    14 O3'          4.9380    12.1250    57.0620 O.3          1 ADP1796   0.0000
    15 C2'          4.0780    12.6040    54.9170 C.3          1 ADP1796   0.0000
    16 O2'          4.9600    13.6360    55.2250 O.3          1 ADP1796   0.0000
    17 C1'          4.4290    11.9820    53.5780 C.3          1 ADP1796   0.0000
    18 N9           3.2600    11.7600    52.6970 N.pl3        1 ADP1796   0.0000
    19 C8           2.6580    10.5650    52.4120 C.2          1 ADP1796   0.0000
    20 N7           1.6490    10.7930    51.5330 N.2          1 ADP1796   0.0000
    21 C5           1.5830    12.1080    51.2590 C.ar         1 ADP1796   0.0000
    22 C6           0.7460    12.8630    50.4420 C.ar         1 ADP1796   0.0000
    23 N6          -0.2410    12.3240    49.7510 N.pl3        1 ADP1796   0.0000
    24 N1           0.9410    14.2170    50.3540 N.ar         1 ADP1796   0.0000
    25 C2           1.9740    14.8070    51.0820 C.ar         1 ADP1796   0.0000
    26 N3           2.7960    14.0560    51.9030 N.ar         1 ADP1796   0.0000
    27 C4           2.6020    12.7230    51.9860 C.ar         1 ADP1796   0.0000
    28 H5'1         5.2402     8.4820    54.9861 H            1 ADP1796   0.0000
    29 H5'2         5.2368     8.9173    56.5600 H            1 ADP1796   0.0000
    30 H4'          6.1693    10.7381    55.5135 H            1 ADP1796   0.0000
    31 H3'          3.4530    11.1206    56.2212 H            1 ADP1796   0.0000
    32 H5           4.2486    12.3646    57.7456 H            1 ADP1796   0.0000
    33 H2'          3.1297    12.9210    54.9320 H            1 ADP1796   0.0000
    34 H7           5.4918    13.3893    56.0351 H            1 ADP1796   0.0000
    35 H1'          5.0796    12.5773    53.1066 H            1 ADP1796   0.0000
    36 H9           2.9171     9.6751    52.7873 H            1 ADP1796   0.0000
    37 H10         -0.8209    12.9000    49.1749 H            1 ADP1796   0.0000
    38 H11         -0.4089    11.3396    49.8036 H            1 ADP1796   0.0000
    39 H12          2.1235    15.7931    51.0090 H            1 ADP1796   0.0000
@<TRIPOS>BOND
     1    1    2      ar
     2    1    3      ar
     3    1    4      ar
     4    1    8       1
     5    5    6      ar
     6    5    7      ar
     7    5    8       1
     8    5    9       1
     9    9   10       1
    10   10   11       1
    11   11   12       1
    12   11   13       1
    13   12   17       1
    14   13   14       1
    15   13   15       1
    16   15   16       1
    17   15   17       1
    18   17   18       1
    19   18   19       1
    20   18   27       1
    21   19   20       2
    22   20   21       1
    23   21   22      ar
    24   21   27      ar
    25   22   23       1
    26   22   24      ar
    27   24   25      ar
    28   25   26      ar
    29   26   27      ar
    30   25   39       1
    31   23   38       1
    32   23   37       1
    33   10   28       1
    34   10   29       1
    35   11   30       1
    36   13   31       1
    37   14   32       1
    38   15   33       1
    39   16   34       1
    40   17   35       1
    41   19   36       1
@<TRIPOS>SUBSTRUCTURE
     1 ADP1796     1 GROUP             4 A     ADP     0 **** ADP A1796
