@<TRIPOS>MOLECULE
3sxp_NAD_1_ligand
   70    74     1     0     0
SMALL
NO_CHARGES


@<TRIPOS>ATOM
     1 PA          35.9810    18.1470    -3.9520 P.3          1 NAD2402   0.0000
     2 O1A         35.6190    17.7230    -5.3230 O.co2        1 NAD2402   0.0000
     3 O2A         37.2260    17.6350    -3.3410 O.co2        1 NAD2402  -1.0000
     4 O5B         34.7640    17.8170    -2.9570 O.3          1 NAD2402   0.0000
     5 C5B         33.4480    17.6380    -3.4770 C.3          1 NAD2402   0.0000
     6 C4B         32.9380    16.2590    -3.0610 C.3          1 NAD2402   0.0000
     7 O4B         31.5960    16.1070    -3.5520 O.3          1 NAD2402   0.0000
     8 C3B         33.7850    15.1590    -3.7090 C.3          1 NAD2402   0.0000
     9 O3B         34.1370    14.1800    -2.7280 O.3          1 NAD2402   0.0000
    10 C2B         32.8160    14.5620    -4.7300 C.3          1 NAD2402   0.0000
    11 O2B         33.0840    13.1650    -4.8780 O.3          1 NAD2402   0.0000
    12 C1B         31.5070    14.7360    -3.9610 C.3          1 NAD2402   0.0000
    13 N9A         30.3450    14.5760    -4.8640 N.pl3        1 NAD2402   0.0000
    14 C8A         30.2460    15.0800    -6.0920 C.2          1 NAD2402   0.0000
    15 N7A         29.0790    14.7290    -6.6260 N.2          1 NAD2402   0.0000
    16 C5A         28.4240    13.9950    -5.7280 C.ar         1 NAD2402   0.0000
    17 C6A         27.1950    13.3560    -5.7200 C.ar         1 NAD2402   0.0000
    18 N6A         26.3890    13.4250    -6.7770 N.pl3        1 NAD2402   0.0000
    19 N1A         26.8280    12.6760    -4.6230 N.ar         1 NAD2402   0.0000
    20 C2A         27.6160    12.6140    -3.5640 C.ar         1 NAD2402   0.0000
    21 N3A         28.7950    13.2100    -3.5390 N.ar         1 NAD2402   0.0000
    22 C4A         29.2290    13.9030    -4.6000 C.ar         1 NAD2402   0.0000
    23 O3          36.0130    19.7540    -3.9450 O.3          1 NAD2402   0.0000
    24 PN          36.2560    20.5630    -2.5740 P.3          1 NAD2402   0.0000
    25 O1N         37.4120    21.4670    -2.7700 O.co2        1 NAD2402   0.0000
    26 O2N         36.2720    19.6230    -1.4300 O.co2        1 NAD2402  -1.0000
    27 O5D         34.9520    21.5070    -2.4680 O.3          1 NAD2402   0.0000
    28 C5D         33.9150    21.2350    -1.5180 C.3          1 NAD2402   0.0000
    29 C4D         32.8430    22.3330    -1.4520 C.3          1 NAD2402   0.0000
    30 O4D         33.4880    23.6150    -1.3170 O.3          1 NAD2402   0.0000
    31 C3D         31.9610    22.4540    -2.6980 C.3          1 NAD2402   0.0000
    32 O3D         30.5120    22.8090    -2.4020 O.3          1 NAD2402   0.0000
    33 C2D         32.8650    23.3390    -3.5480 C.3          1 NAD2402   0.0000
    34 O2D         32.1550    23.9090    -4.6510 O.3          1 NAD2402   0.0000
    35 C1D         33.1390    24.3930    -2.4750 C.3          1 NAD2402   0.0000
    36 N1N         34.2210    25.3370    -2.8280 N.ar         1 NAD2402   1.0000
    37 C2N         35.5480    24.8940    -2.7980 C.ar         1 NAD2402   0.0000
    38 C3N         36.5690    25.7810    -3.1230 C.ar         1 NAD2402   0.0000
    39 C7N         38.0190    25.2910    -3.1430 C.2          1 NAD2402   0.0000
    40 O7N         38.9140    26.0140    -3.5760 O.2          1 NAD2402   0.0000
    41 N7N         38.2050    24.0520    -2.6910 N.am         1 NAD2402   0.0000
    42 C4N         36.2730    27.0950    -3.4680 C.ar         1 NAD2402   0.0000
    43 C5N         34.9540    27.5370    -3.4970 C.ar         1 NAD2402   0.0000
    44 C6N         33.9230    26.6620    -3.1780 C.ar         1 NAD2402   0.0000
    45 H5B1        33.4693    17.7016    -4.4747 H            1 NAD2402   0.0000
    46 H5B2        32.8428    18.3448    -3.1107 H            1 NAD2402   0.0000
    47 H4B         32.9553    16.1687    -2.0652 H            1 NAD2402   0.0000
    48 H3B         34.5964    15.5377    -4.1541 H            1 NAD2402   0.0000
    49 H5          33.3054    13.7763    -2.3466 H            1 NAD2402   0.0000
    50 H2B         32.8213    15.0520    -5.6017 H            1 NAD2402   0.0000
    51 H7          32.9646    12.7075    -3.9968 H            1 NAD2402   0.0000
    52 H1B         31.4538    14.1184    -3.1763 H            1 NAD2402   0.0000
    53 H8A         30.9424    15.6373    -6.5441 H            1 NAD2402   0.0000
    54 H6A1        25.5036    12.9603    -6.7618 H            1 NAD2402   0.0000
    55 H6A2        26.6688    13.9415    -7.5863 H            1 NAD2402   0.0000
    56 H2A         27.3120    12.1025    -2.7603 H            1 NAD2402   0.0000
    57 H5D1        34.3305    21.1432    -0.6131 H            1 NAD2402   0.0000
    58 H5D2        33.4721    20.3746    -1.7702 H            1 NAD2402   0.0000
    59 H4D         32.2614    22.1742    -0.6542 H            1 NAD2402   0.0000
    60 H3D         31.9524    21.5529    -3.1316 H            1 NAD2402   0.0000
    61 H17         29.9823    21.9702    -2.2760 H            1 NAD2402   0.0000
    62 H2D         33.6973    22.8656    -3.8363 H            1 NAD2402   0.0000
    63 H19         32.2181    23.2976    -5.4398 H            1 NAD2402   0.0000
    64 H1D         32.2997    24.9044    -2.2904 H            1 NAD2402   0.0000
    65 H2N         35.7600    23.9499    -2.5456 H            1 NAD2402   0.0000
    66 H7N1        39.1245    23.6595    -2.6721 H            1 NAD2402   0.0000
    67 H7N2        37.4251    23.5143    -2.3706 H            1 NAD2402   0.0000
    68 H4N         37.0134    27.7269    -3.6969 H            1 NAD2402   0.0000
    69 H5N         34.7484    28.4831    -3.7471 H            1 NAD2402   0.0000
    70 H6N         32.9736    26.9753    -3.1979 H            1 NAD2402   0.0000
@<TRIPOS>BOND
     1    1    2      ar
     2    1    3      ar
     3    1    4       1
     4    1   23       1
     5    4    5       1
     6    5    6       1
     7    6    7       1
     8    6    8       1
     9    7   12       1
    10    8    9       1
    11    8   10       1
    12   10   11       1
    13   10   12       1
    14   12   13       1
    15   13   14       1
    16   13   22       1
    17   14   15       2
    18   15   16       1
    19   16   17      ar
    20   16   22      ar
    21   17   18       1
    22   17   19      ar
    23   19   20      ar
    24   20   21      ar
    25   21   22      ar
    26   23   24       1
    27   24   25      ar
    28   24   26      ar
    29   24   27       1
    30   27   28       1
    31   28   29       1
    32   29   30       1
    33   29   31       1
    34   30   35       1
    35   31   32       1
    36   31   33       1
    37   33   34       1
    38   33   35       1
    39   35   36       1
    40   36   37      ar
    41   36   44      ar
    42   37   38      ar
    43   38   39       1
    44   38   42      ar
    45   39   40       2
    46   39   41      am
    47   42   43      ar
    48   43   44      ar
    49   44   70       1
    50    5   45       1
    51    5   46       1
    52    6   47       1
    53    8   48       1
    54    9   49       1
    55   10   50       1
    56   11   51       1
    57   12   52       1
    58   14   53       1
    59   18   54       1
    60   18   55       1
    61   20   56       1
    62   43   69       1
    63   28   57       1
    64   28   58       1
    65   29   59       1
    66   31   60       1
    67   32   61       1
    68   33   62       1
    69   34   63       1
    70   35   64       1
    71   37   65       1
    72   41   66       1
    73   41   67       1
    74   42   68       1
@<TRIPOS>SUBSTRUCTURE
     1 NAD2402     1 GROUP             4 A     NAD     0 **** NAD A2402
