@<TRIPOS>MOLECULE
3ayk_CGS_1_ligand
   49    50     1     0     0
SMALL
NO_CHARGES


@<TRIPOS>ATOM
     1 N1           3.4980    -3.8380     0.3750 N.3          1 CGS173   0.0000
     2 CC           4.0360    -5.1220     0.9240 C.3          1 CGS173   0.0000
     3 CA           2.1020    -3.7200    -0.1360 C.3          1 CGS173   0.0000
     4 S4           4.6920    -2.8640    -0.5100 S.o2         1 CGS173   0.0000
     5 C5           4.2740    -5.2650     2.4220 C.ar         1 CGS173   0.0000
     6 CD           5.2000    -4.4600     3.0820 C.ar         1 CGS173   0.0000
     7 CE           5.3970    -4.6120     4.4490 C.ar         1 CGS173   0.0000
     8 CZ           4.6570    -5.5720     5.1250 C.ar         1 CGS173   0.0000
     9 N11          3.7670    -6.3560     4.5310 N.ar         1 CGS173   0.0000
    10 CY           3.5900    -6.1950     3.2090 C.ar         1 CGS173   0.0000
    11 C17          4.9900    -3.5620    -2.1310 C.ar         1 CGS173   0.0000
    12 CE2          5.8060    -4.6720    -2.2880 C.ar         1 CGS173   0.0000
    13 CD2          5.9460    -5.2710    -3.5390 C.ar         1 CGS173   0.0000
    14 C20          5.2720    -4.7660    -4.6560 C.ar         1 CGS173   0.0000
    15 CD1          4.4630    -3.6400    -4.4770 C.ar         1 CGS173   0.0000
    16 CE1          4.3310    -3.0470    -3.2290 C.ar         1 CGS173   0.0000
    17 O27          5.4030    -5.3680    -5.9180 O.3          1 CGS173   0.0000
    18 COM          6.5810    -5.0580    -6.6520 C.3          1 CGS173   0.0000
    19 O32          5.8610    -2.9750     0.3040 O.2          1 CGS173   0.0000
    20 O33          4.0270    -1.6050    -0.6360 O.2          1 CGS173   0.0000
    21 C34          1.9230    -4.6400    -1.3470 C.2          1 CGS173   0.0000
    22 N35          1.7320    -4.0220    -2.4990 N.am         1 CGS173   0.0000
    23 CB           0.8760    -3.7660     0.8140 C.3          1 CGS173   0.0000
    24 CG2         -0.1220    -2.6370     0.5650 C.3          1 CGS173   0.0000
    25 CG1          1.2390    -3.7280     2.2930 C.3          1 CGS173   0.0000
    26 O47          1.9440    -5.8730    -1.2810 O.2          1 CGS173   0.0000
    27 O48          1.5570    -4.7600    -3.6490 O.3          1 CGS173  -1.0000
    28 HC1          4.9147    -5.2833     0.4746 H            1 CGS173   0.0000
    29 HC2          3.3915    -5.8408     0.6634 H            1 CGS173   0.0000
    30 HA           2.0673    -2.8003    -0.5270 H            1 CGS173   0.0000
    31 HD           5.7213    -3.7748     2.5734 H            1 CGS173   0.0000
    32 HE           6.0584    -4.0414     4.9358 H            1 CGS173   0.0000
    33 HZ           4.8020    -5.6779     6.1088 H            1 CGS173   0.0000
    34 HY           2.9204    -6.7832     2.7555 H            1 CGS173   0.0000
    35 HE2          6.2964    -5.0446    -1.5002 H            1 CGS173   0.0000
    36 HD2          6.5360    -6.0722    -3.6392 H            1 CGS173   0.0000
    37 HD1          3.9724    -3.2563    -5.2593 H            1 CGS173   0.0000
    38 HE1          3.7524    -2.2382    -3.1243 H            1 CGS173   0.0000
    39 HOM1         6.5645    -5.5402    -7.5279 H            1 CGS173   0.0000
    40 HOM2         6.6225    -4.0722    -6.8149 H            1 CGS173   0.0000
    41 HOM3         7.3843    -5.3436    -6.1293 H            1 CGS173   0.0000
    42 H15          1.7145    -3.0228    -2.5360 H            1 CGS173   0.0000
    43 HB           0.3994    -4.6288     0.6453 H            1 CGS173   0.0000
    44 HG21        -0.8860    -2.7203     1.2049 H            1 CGS173   0.0000
    45 HG22         0.3311    -1.7558     0.6998 H            1 CGS173   0.0000
    46 HG23        -0.4646    -2.6957    -0.3726 H            1 CGS173   0.0000
    47 HG11         0.4039    -3.7607     2.8421 H            1 CGS173   0.0000
    48 HG12         1.8150    -4.5147     2.5152 H            1 CGS173   0.0000
    49 HG13         1.7363    -2.8837     2.4926 H            1 CGS173   0.0000
@<TRIPOS>BOND
     1    1    2       1
     2    1    3       1
     3    1    4       1
     4    2    5       1
     5    3   21       1
     6    3   23       1
     7    4   11       1
     8    4   19       2
     9    4   20       2
    10    5    6      ar
    11    5   10      ar
    12    6    7      ar
    13    7    8      ar
    14    8    9      ar
    15    9   10      ar
    16   11   12      ar
    17   11   16      ar
    18   12   13      ar
    19   13   14      ar
    20   14   15      ar
    21   14   17       1
    22   15   16      ar
    23   17   18       1
    24   21   22      am
    25   21   26       2
    26   22   27       1
    27   23   24       1
    28   23   25       1
    29    2   28       1
    30    2   29       1
    31    3   30       1
    32    6   31       1
    33    7   32       1
    34    8   33       1
    35   10   34       1
    36   12   35       1
    37   13   36       1
    38   15   37       1
    39   16   38       1
    40   18   39       1
    41   18   40       1
    42   18   41       1
    43   22   42       1
    44   23   43       1
    45   24   44       1
    46   24   45       1
    47   24   46       1
    48   25   47       1
    49   25   48       1
    50   25   49       1
@<TRIPOS>SUBSTRUCTURE
     1 CGS173      1 GROUP             4 A     CGS     0 **** CGS A 173
