@<TRIPOS>MOLECULE
2ch6_ADP_3_ligand
   39    41     1     0     0
SMALL
NO_CHARGES


@<TRIPOS>ATOM
     1 PB         -18.2860    74.2540    94.4440 P.3          1 ADP470   0.0000
     2 O1B        -17.4730    73.9460    95.6890 O.co2        1 ADP470   0.0000
     3 O2B        -19.1810    73.0960    94.0840 O.co2        1 ADP470  -1.0000
     4 O3B        -17.4630    74.8050    93.3080 O.co2        1 ADP470  -1.0000
     5 PA         -19.0510    76.9940    94.6860 P.3          1 ADP470   0.0000
     6 O1A        -18.9860    77.3900    93.2330 O.co2        1 ADP470   0.0000
     7 O2A        -20.0090    77.7280    95.6070 O.co2        1 ADP470  -1.0000
     8 O3A        -19.3390    75.4140    94.8200 O.3          1 ADP470   0.0000
     9 O5'        -17.5770    77.1800    95.2980 O.3          1 ADP470   0.0000
    10 C5'        -17.4010    77.3640    96.6970 C.3          1 ADP470   0.0000
    11 C4'        -16.2550    78.3400    96.8980 C.3          1 ADP470   0.0000
    12 O4'        -16.6250    79.6270    96.4140 O.3          1 ADP470   0.0000
    13 C3'        -15.9050    78.5080    98.3640 C.3          1 ADP470   0.0000
    14 O3'        -14.7000    77.7920    98.6490 O.3          1 ADP470   0.0000
    15 C2'        -15.7400    80.0000    98.5580 C.3          1 ADP470   0.0000
    16 O2'        -14.4200    80.2950    98.9880 O.3          1 ADP470   0.0000
    17 C1'        -15.9900    80.6270    97.1980 C.3          1 ADP470   0.0000
    18 N9         -16.8460    81.8410    97.2880 N.pl3        1 ADP470   0.0000
    19 C8         -18.1020    81.9580    97.7880 C.2          1 ADP470   0.0000
    20 N7         -18.5350    83.2500    97.6870 N.2          1 ADP470   0.0000
    21 C5         -17.5550    83.9780    97.1140 C.ar         1 ADP470   0.0000
    22 C6         -17.3240    85.3840    96.7190 C.ar         1 ADP470   0.0000
    23 N6         -18.2460    86.3620    96.8910 N.pl3        1 ADP470   0.0000
    24 N1         -16.1360    85.6940    96.1510 N.ar         1 ADP470   0.0000
    25 C2         -15.1660    84.7840    95.9460 C.ar         1 ADP470   0.0000
    26 N3         -15.3080    83.4960    96.2870 N.ar         1 ADP470   0.0000
    27 C4         -16.4520    83.0420    96.8520 C.ar         1 ADP470   0.0000
    28 H5'1       -17.1826    76.4895    97.1300 H            1 ADP470   0.0000
    29 H5'2       -18.2380    77.7352    97.0990 H            1 ADP470   0.0000
    30 H4'        -15.4511    78.0159    96.3994 H            1 ADP470   0.0000
    31 H3'        -16.6507    78.1674    98.9366 H            1 ADP470   0.0000
    32 H5         -14.8813    77.0984    99.3462 H            1 ADP470   0.0000
    33 H2'        -16.4052    80.3387    99.2234 H            1 ADP470   0.0000
    34 H7         -13.8971    79.4461    99.0653 H            1 ADP470   0.0000
    35 H1'        -15.1148    80.8695    96.7794 H            1 ADP470   0.0000
    36 H9         -18.6349    81.2057    98.1753 H            1 ADP470   0.0000
    37 H10        -18.0406    87.2984    96.6066 H            1 ADP470   0.0000
    38 H11        -19.1319    86.1473    97.3023 H            1 ADP470   0.0000
    39 H12        -14.3088    85.0795    95.5242 H            1 ADP470   0.0000
@<TRIPOS>BOND
     1    1    2      ar
     2    1    3      ar
     3    1    4      ar
     4    1    8       1
     5    5    6      ar
     6    5    7      ar
     7    5    8       1
     8    5    9       1
     9    9   10       1
    10   10   11       1
    11   11   12       1
    12   11   13       1
    13   12   17       1
    14   13   14       1
    15   13   15       1
    16   15   16       1
    17   15   17       1
    18   17   18       1
    19   18   19       1
    20   18   27       1
    21   19   20       2
    22   20   21       1
    23   21   22      ar
    24   21   27      ar
    25   22   23       1
    26   22   24      ar
    27   24   25      ar
    28   25   26      ar
    29   26   27      ar
    30   25   39       1
    31   23   38       1
    32   23   37       1
    33   10   28       1
    34   10   29       1
    35   11   30       1
    36   13   31       1
    37   14   32       1
    38   15   33       1
    39   16   34       1
    40   17   35       1
    41   19   36       1
@<TRIPOS>SUBSTRUCTURE
     1 ADP470      1 GROUP             4 C     ADP     0 **** ADP C 470
