@<TRIPOS>MOLECULE
4bl5_GFB_3_ligand
   61    64     1     0     0
SMALL
NO_CHARGES


@<TRIPOS>ATOM
     1 O1P         25.9660     7.8340   -89.1870 O.co2        1 GFB902   0.0000
     2 P           26.0070     8.2510   -87.7580 P.3          1 GFB902   0.0000
     3 O3P         25.2460     7.4040   -86.8060 O.co2        1 GFB902  -1.0000
     4 O2P         27.4900     8.2670   -87.2780 O.3          1 GFB902   0.0000
     5 O5'         25.5660     9.7980   -87.6210 O.3          1 GFB902   0.0000
     6 P1          28.4150     9.5220   -86.8600 P.3          1 GFB902   0.0000
     7 C5'         24.6730    10.2250   -86.5810 C.3          1 GFB902   0.0000
     8 C4'         24.3820    11.6910   -86.8650 C.3          1 GFB902   0.0000
     9 O4'         23.3080    11.8490   -87.8230 O.3          1 GFB902   0.0000
    10 C3'         23.8640    12.3710   -85.5890 C.3          1 GFB902   0.0000
    11 C1'         22.0900    12.1800   -87.0830 C.3          1 GFB902   0.0000
    12 O3'         23.9300    13.7760   -85.7150 O.3          1 GFB902   0.0000
    13 C2'         22.4140    11.9690   -85.5960 C.3          1 GFB902   0.0000
    14 O2'         21.5830    12.8110   -84.7100 O.3          1 GFB902   0.0000
    15 N9          20.9660    11.3280   -87.5560 N.pl3        1 GFB902   0.0000
    16 C8          19.8160    11.7990   -88.0320 C.2          1 GFB902   0.0000
    17 C4          20.9010    10.0030   -87.6160 C.2          1 GFB902   0.0000
    18 N7          19.0310    10.7740   -88.3670 N.2          1 GFB902   0.0000
    19 C5          19.7080     9.6600   -88.1300 C.2          1 GFB902   0.0000
    20 C6          19.3680     8.3920   -88.3040 C.2          1 GFB902   0.0000
    21 O6          18.2630     8.0970   -88.7770 O.2          1 GFB902   0.0000
    22 N1          20.2850     7.4000   -87.9260 N.pl3        1 GFB902   0.0000
    23 C2          21.5150     7.7770   -87.3960 C.2          1 GFB902   0.0000
    24 N2          22.4190     6.8750   -87.0380 N.pl3        1 GFB902   0.0000
    25 N3          21.7960     9.0720   -87.2500 N.2          1 GFB902   0.0000
    26 C1          29.8330     7.4530   -86.3780 C.3          1 GFB902   0.0000
    27 C2A         30.7110     6.7860   -85.4060 C.3          1 GFB902   0.0000
    28 O1          29.5200     8.7690   -85.9730 O.3          1 GFB902   0.0000
    29 O5          30.5880     7.6160   -87.5620 O.3          1 GFB902   0.0000
    30 C3          30.9560     5.3500   -85.8770 C.3          1 GFB902   0.0000
    31 O2          30.0930     6.7760   -84.0920 O.3          1 GFB902   0.0000
    32 C4A         31.0630     5.1420   -87.4490 C.3          1 GFB902   0.0000
    33 O3          32.1120     4.8610   -85.2000 O.3          1 GFB902   0.0000
    34 C5A         30.6460     6.3790   -88.3280 C.3          1 GFB902   0.0000
    35 O4          32.3460     4.6450   -87.8440 O.3          1 GFB902   0.0000
    36 C6A         31.5850     6.6020   -89.5240 C.3          1 GFB902   0.0000
    37 O1X         29.1240    10.0180   -88.0560 O.co2        1 GFB902   0.0000
    38 O2X         27.6540    10.4580   -85.9990 O.co2        1 GFB902  -1.0000
    39 H5'1        25.1062    10.1226   -85.6855 H            1 GFB902   0.0000
    40 H5'2        23.8281     9.6906   -86.6056 H            1 GFB902   0.0000
    41 H4'         25.2077    12.1509   -87.1916 H            1 GFB902   0.0000
    42 H3'         24.3392    12.0454   -84.7716 H            1 GFB902   0.0000
    43 H1'         21.8620    13.1414   -87.2372 H            1 GFB902   0.0000
    44 H6          23.0125    14.1625   -85.6214 H            1 GFB902   0.0000
    45 H2'         22.3181    11.0041   -85.3513 H            1 GFB902   0.0000
    46 H8          21.9165    12.7363   -83.7702 H            1 GFB902   0.0000
    47 H9          19.5785    12.7660   -88.1238 H            1 GFB902   0.0000
    48 H10         23.2964     7.1695   -86.6593 H            1 GFB902   0.0000
    49 H11         22.2232     5.9004   -87.1468 H            1 GFB902   0.0000
    50 H12         29.0049     6.9182   -86.5461 H            1 GFB902   0.0000
    51 H2A         31.5833     7.2727   -85.3585 H            1 GFB902   0.0000
    52 H14         30.1802     4.8031   -85.5623 H            1 GFB902   0.0000
    53 H15         30.7003     6.3199   -83.4415 H            1 GFB902   0.0000
    54 H4A         30.4106     4.4178   -87.6723 H            1 GFB902   0.0000
    55 H17         32.0346     3.8712   -85.0806 H            1 GFB902   0.0000
    56 H5A         29.7305     6.2012   -88.6888 H            1 GFB902   0.0000
    57 H19         33.0545     5.2947   -87.5683 H            1 GFB902   0.0000
    58 H6A1        31.6400     5.7631   -90.0655 H            1 GFB902   0.0000
    59 H6A2        31.2296     7.3434   -90.0931 H            1 GFB902   0.0000
    60 H6A3        32.4964     6.8445   -89.1915 H            1 GFB902   0.0000
    61 H23         20.0572     6.4326   -88.0362 H            1 GFB902   0.0000
@<TRIPOS>BOND
     1    1    2      ar
     2    2    3      ar
     3    2    4       1
     4    2    5       1
     5    4    6       1
     6    5    7       1
     7    6   28       1
     8    6   37      ar
     9    6   38      ar
    10    7    8       1
    11    8    9       1
    12    8   10       1
    13    9   11       1
    14   10   12       1
    15   10   13       1
    16   11   13       1
    17   11   15       1
    18   13   14       1
    19   15   16       1
    20   15   17       1
    21   16   18       2
    22   17   19       2
    23   17   25       1
    24   18   19       1
    25   19   20       1
    26   20   21       2
    27   20   22       1
    28   22   23       1
    29   23   24       1
    30   23   25       2
    31   26   27       1
    32   26   28       1
    33   26   29       1
    34   27   30       1
    35   27   31       1
    36   29   34       1
    37   30   32       1
    38   30   33       1
    39   32   34       1
    40   32   35       1
    41   34   36       1
    42   36   60       1
    43    7   39       1
    44    7   40       1
    45    8   41       1
    46   10   42       1
    47   11   43       1
    48   12   44       1
    49   13   45       1
    50   14   46       1
    51   16   47       1
    52   24   48       1
    53   24   49       1
    54   22   61       1
    55   26   50       1
    56   27   51       1
    57   30   52       1
    58   31   53       1
    59   32   54       1
    60   33   55       1
    61   34   56       1
    62   35   57       1
    63   36   58       1
    64   36   59       1
@<TRIPOS>SUBSTRUCTURE
     1 GFB902      1 GROUP             4 C     GFB     0 **** GFB C 902
