@<TRIPOS>MOLECULE
4w5r_IPH_3_ligand
   13    13     1     0     0
SMALL
NO_CHARGES


@<TRIPOS>ATOM
     1 C1          51.0480   -24.3100    39.1590 C.ar         1 IPH905   0.0000
     2 C2          50.9330   -24.3750    40.5440 C.ar         1 IPH905   0.0000
     3 C3          49.8290   -23.8200    41.1770 C.ar         1 IPH905   0.0000
     4 C4          48.8390   -23.1970    40.4260 C.ar         1 IPH905   0.0000
     5 C5          48.9510   -23.1300    39.0410 C.ar         1 IPH905   0.0000
     6 C6          50.0550   -23.6890    38.4070 C.ar         1 IPH905   0.0000
     7 O1          52.1410   -24.8590    38.5370 O.3          1 IPH905   0.0000
     8 H1          51.6462   -24.8219    41.0840 H            1 IPH905   0.0000
     9 H2          49.7461   -23.8684    42.1724 H            1 IPH905   0.0000
    10 H3          48.0446   -22.7961    40.8823 H            1 IPH905   0.0000
    11 H4          48.2385   -22.6805    38.5022 H            1 IPH905   0.0000
    12 H5          50.1355   -23.6449    37.4112 H            1 IPH905   0.0000
    13 H6          52.2253   -24.8132    37.5416 H            1 IPH905   0.0000
@<TRIPOS>BOND
     1    1    2      ar
     2    1    6      ar
     3    1    7       1
     4    2    3      ar
     5    3    4      ar
     6    4    5      ar
     7    5    6      ar
     8    2    8       1
     9    3    9       1
    10    4   10       1
    11    5   11       1
    12    6   12       1
    13    7   13       1
@<TRIPOS>SUBSTRUCTURE
     1 IPH905      1 GROUP             4 A     IPH     0 **** IPH A 905
