@<TRIPOS>MOLECULE
2zfu_SAH_1_ligand
   46    48     1     0     0
SMALL
NO_CHARGES


@<TRIPOS>ATOM
     1 N           22.5580     6.3330    -4.5870 N.4          1 SAH900   1.0000
     2 CA          22.8620     7.4250    -5.5250 C.3          1 SAH900   0.0000
     3 CB          21.8700     8.5790    -5.3580 C.3          1 SAH900   0.0000
     4 CG          21.8010     9.2190    -3.9680 C.3          1 SAH900   0.0000
     5 SD          20.8040    10.7410    -3.9030 S.3          1 SAH900   0.0000
     6 C           24.2850     7.9530    -5.3630 C.2          1 SAH900   0.0000
     7 O           24.9240     7.6940    -4.3340 O.co2        1 SAH900   0.0000
     8 OXT         24.8090     8.6590    -6.2430 O.co2        1 SAH900  -1.0000
     9 C5'         19.2960     9.9760    -3.2420 C.3          1 SAH900   0.0000
    10 C4'         18.4210     9.2800    -4.2920 C.3          1 SAH900   0.0000
    11 O4'         17.4680     8.4770    -3.6070 O.3          1 SAH900   0.0000
    12 C3'         17.6390    10.2460    -5.1930 C.3          1 SAH900   0.0000
    13 O3'         17.8460     9.9240    -6.5560 O.3          1 SAH900   0.0000
    14 C2'         16.2060    10.0400    -4.7660 C.3          1 SAH900   0.0000
    15 O2'         15.2330    10.3130    -5.7560 O.3          1 SAH900   0.0000
    16 C1'         16.2580     8.5740    -4.3230 C.3          1 SAH900   0.0000
    17 N9          15.0970     8.2400    -3.5210 N.pl3        1 SAH900   0.0000
    18 C8          14.7370     8.8350    -2.3390 C.2          1 SAH900   0.0000
    19 N7          13.5960     8.2560    -1.9400 N.2          1 SAH900   0.0000
    20 C5          13.2240     7.3030    -2.8300 C.ar         1 SAH900   0.0000
    21 C6          12.1420     6.4120    -2.8700 C.ar         1 SAH900   0.0000
    22 N6          11.2170     6.4100    -1.9170 N.pl3        1 SAH900   0.0000
    23 N1          12.0320     5.5310    -3.9260 N.ar         1 SAH900   0.0000
    24 C2          12.9770     5.5210    -4.9250 C.ar         1 SAH900   0.0000
    25 N3          14.0660     6.4000    -4.8810 N.ar         1 SAH900   0.0000
    26 C4          14.1730     7.2760    -3.8380 C.ar         1 SAH900   0.0000
    27 H1          23.2171     5.5917    -4.7136 H            1 SAH900   0.0000
    28 H2          22.6158     6.6738    -3.6486 H            1 SAH900   0.0000
    29 HA          22.7684     7.0689    -6.4548 H            1 SAH900   0.0000
    30 HB1         20.9587     8.2317    -5.5791 H            1 SAH900   0.0000
    31 HB2         22.1216     9.2939    -6.0104 H            1 SAH900   0.0000
    32 HG1         22.7318     9.4400    -3.6769 H            1 SAH900   0.0000
    33 HG2         21.4028     8.5548    -3.3353 H            1 SAH900   0.0000
    34 H5'1        18.7498    10.6903    -2.8045 H            1 SAH900   0.0000
    35 H5'2        19.5644     9.2964    -2.5593 H            1 SAH900   0.0000
    36 H4'         18.9962     8.6928    -4.8615 H            1 SAH900   0.0000
    37 H3'         17.9203    11.1889    -5.0144 H            1 SAH900   0.0000
    38 H12         17.5326     8.9903    -6.7292 H            1 SAH900   0.0000
    39 H2'         16.0222    10.6121    -3.9667 H            1 SAH900   0.0000
    40 H14         15.3823     9.7154    -6.5438 H            1 SAH900   0.0000
    41 H1'         16.2940     7.9804    -5.1269 H            1 SAH900   0.0000
    42 H16         15.2320     9.5630    -1.8647 H            1 SAH900   0.0000
    43 H17         10.4528     5.7667    -1.9633 H            1 SAH900   0.0000
    44 H18         11.2848     7.0518    -1.1531 H            1 SAH900   0.0000
    45 H19         12.8858     4.8814    -5.6883 H            1 SAH900   0.0000
    46 H20         21.6345     5.9913    -4.7613 H            1 SAH900   0.0000
@<TRIPOS>BOND
     1    1    2       1
     2    2    3       1
     3    2    6       1
     4    3    4       1
     5    4    5       1
     6    5    9       1
     7    6    7      ar
     8    6    8      ar
     9    9   10       1
    10   10   11       1
    11   10   12       1
    12   11   16       1
    13   12   13       1
    14   12   14       1
    15   14   15       1
    16   14   16       1
    17   16   17       1
    18   17   18       1
    19   17   26       1
    20   18   19       2
    21   19   20       1
    22   20   21      ar
    23   20   26      ar
    24   21   22       1
    25   21   23      ar
    26   23   24      ar
    27   24   25      ar
    28   25   26      ar
    29    1   27       1
    30    1   28       1
    31    2   29       1
    32    3   30       1
    33    3   31       1
    34    4   32       1
    35    4   33       1
    36    1   46       1
    37    9   34       1
    38    9   35       1
    39   10   36       1
    40   12   37       1
    41   13   38       1
    42   14   39       1
    43   15   40       1
    44   16   41       1
    45   18   42       1
    46   22   43       1
    47   22   44       1
    48   24   45       1
@<TRIPOS>SUBSTRUCTURE
     1 SAH900      1 GROUP             4 A     SAH     0 **** SAH A 900
