@<TRIPOS>MOLECULE
2dvo_ITT_1_ligand
   42    44     1     0     0
SMALL
NO_CHARGES


@<TRIPOS>ATOM
     1 PG          49.5420    59.2020    33.9330 P.3          1 ITT201   0.0000
     2 O1G         50.7800    58.8910    34.5620 O.co2        1 ITT201   0.0000
     3 O2G         48.3990    59.1270    34.8660 O.co2        1 ITT201  -1.0000
     4 O3G         49.2690    58.2910    32.8250 O.co2        1 ITT201  -1.0000
     5 PB          48.7430    62.0470    33.9530 P.3          1 ITT201   0.0000
     6 O1B         49.7530    63.0700    33.8750 O.co2        1 ITT201   0.0000
     7 O2B         47.4490    62.2590    33.3000 O.co2        1 ITT201  -1.0000
     8 O3B         49.3130    60.7510    33.4360 O.3          1 ITT201   0.0000
     9 PA          48.7140    62.3980    36.7650 P.3          1 ITT201   0.0000
    10 O1A         47.4430    61.8280    37.4470 O.co2        1 ITT201   0.0000
    11 O2A         49.9240    61.8730    37.5530 O.co2        1 ITT201  -1.0000
    12 O3A         48.2810    61.7780    35.3710 O.3          1 ITT201   0.0000
    13 O5'         48.5470    63.9800    36.6290 O.3          1 ITT201   0.0000
    14 C5'         48.8200    65.0440    37.6460 C.3          1 ITT201   0.0000
    15 C4'         48.9760    66.2240    37.0100 C.3          1 ITT201   0.0000
    16 O4'         49.9620    66.7420    38.0280 O.3          1 ITT201   0.0000
    17 C3'         49.4830    66.2370    35.5430 C.3          1 ITT201   0.0000
    18 O3'         48.6180    66.0670    34.5000 O.3          1 ITT201   0.0000
    19 C2'         50.3480    67.5480    35.6840 C.3          1 ITT201   0.0000
    20 O2'         49.3960    68.5930    35.1910 O.3          1 ITT201   0.0000
    21 C1'         50.7410    67.6860    37.1430 C.3          1 ITT201   0.0000
    22 N9          52.1250    67.5940    37.3010 N.pl3        1 ITT201   0.0000
    23 C8          52.9140    66.5700    37.8450 C.2          1 ITT201   0.0000
    24 N7          54.2040    66.7040    37.8920 N.2          1 ITT201   0.0000
    25 C5          54.2940    67.9600    37.3310 C.2          1 ITT201   0.0000
    26 C6          55.4110    68.7350    37.0760 C.2          1 ITT201   0.0000
    27 O6          56.6750    68.4270    37.3140 O.2          1 ITT201   0.0000
    28 N1          55.2180    70.0630    36.4510 N.pl3        1 ITT201   0.0000
    29 C2          53.8970    70.4930    36.1460 C.2          1 ITT201   0.0000
    30 N3          52.7730    69.7980    36.3750 N.2          1 ITT201   0.0000
    31 C4          53.0300    68.5270    36.9640 C.2          1 ITT201   0.0000
    32 H5'1        49.6544    64.8210    38.1500 H            1 ITT201   0.0000
    33 H5'2        48.0518    65.1047    38.2833 H            1 ITT201   0.0000
    34 H4'         48.1275    66.7495    37.0726 H            1 ITT201   0.0000
    35 H3'         50.1391    65.4853    35.4763 H            1 ITT201   0.0000
    36 H5          48.8833    65.2580    33.9754 H            1 ITT201   0.0000
    37 H2'         51.1589    67.5028    35.1006 H            1 ITT201   0.0000
    38 H7          48.7814    68.1906    34.5125 H            1 ITT201   0.0000
    39 H1'         50.4844    68.6120    37.4200 H            1 ITT201   0.0000
    40 H9          52.4835    65.7384    38.1959 H            1 ITT201   0.0000
    41 H10         53.7974    71.3937    35.7232 H            1 ITT201   0.0000
    42 H11         56.0030    70.6478    36.2467 H            1 ITT201   0.0000
@<TRIPOS>BOND
     1    1    2      ar
     2    1    3      ar
     3    1    4      ar
     4    1    8       1
     5    5    6      ar
     6    5    7      ar
     7    5    8       1
     8    5   12       1
     9    9   10      ar
    10    9   11      ar
    11    9   12       1
    12    9   13       1
    13   13   14       1
    14   14   15       1
    15   15   16       1
    16   15   17       1
    17   16   21       1
    18   17   18       1
    19   17   19       1
    20   19   20       1
    21   19   21       1
    22   21   22       1
    23   22   23       1
    24   22   31       1
    25   23   24       2
    26   24   25       1
    27   25   26       1
    28   25   31       2
    29   26   27       2
    30   26   28       1
    31   28   29       1
    32   29   30       2
    33   30   31       1
    34   28   42       1
    35   29   41       1
    36   23   40       1
    37   21   39       1
    38   14   32       1
    39   14   33       1
    40   15   34       1
    41   17   35       1
    42   18   36       1
    43   19   37       1
    44   20   38       1
@<TRIPOS>SUBSTRUCTURE
     1 ITT201      1 GROUP             4 A     ITT     0 **** ITT A 201
