@<TRIPOS>MOLECULE
3ooi_SAM_1_ligand
   50    52     1     0     0
SMALL
NO_CHARGES


@<TRIPOS>ATOM
     1 N            1.3930    -1.5670    -8.9250 N.4          1 SAM237   1.0000
     2 CA           1.5310    -1.4820    -7.4420 C.3          1 SAM237   0.0000
     3 C            2.1830    -2.7520    -6.8830 C.2          1 SAM237   0.0000
     4 O            2.7240    -3.6170    -7.6080 O.co2        1 SAM237   0.0000
     5 OXT          2.1900    -2.9310    -5.6680 O.co2        1 SAM237  -1.0000
     6 CB           0.1830    -1.1370    -6.7890 C.3          1 SAM237   0.0000
     7 CG          -0.1390     0.3710    -6.9050 C.3          1 SAM237   0.0000
     8 SD           0.9700     1.3680    -5.8470 S.3          1 SAM237   1.0000
     9 CE          -0.1740     2.4090    -4.9090 C.3          1 SAM237   0.0000
    10 C5'          1.5940     2.6330    -6.9820 C.3          1 SAM237   0.0000
    11 C4'          2.7300     2.1810    -7.8760 C.3          1 SAM237   0.0000
    12 O4'          2.2750     1.3850    -8.9670 O.3          1 SAM237   0.0000
    13 C3'          3.4130     3.3840    -8.4830 C.3          1 SAM237   0.0000
    14 O3'          4.4250     3.8750    -7.6270 O.3          1 SAM237   0.0000
    15 C2'          3.9250     2.8520    -9.8050 C.3          1 SAM237   0.0000
    16 O2'          5.1660     2.1800    -9.6170 O.3          1 SAM237   0.0000
    17 C1'          2.8840     1.8080   -10.1750 C.3          1 SAM237   0.0000
    18 N9           1.8340     2.3470   -11.0740 N.pl3        1 SAM237   0.0000
    19 C8           0.5010     2.4850   -10.7580 C.2          1 SAM237   0.0000
    20 N7          -0.1610     2.9690   -11.8360 N.2          1 SAM237   0.0000
    21 C5           0.7460     3.1160   -12.8420 C.ar         1 SAM237   0.0000
    22 C6           0.6180     3.5620   -14.1560 C.ar         1 SAM237   0.0000
    23 N6          -0.5440     3.9580   -14.6550 N.pl3        1 SAM237   0.0000
    24 N1           1.7330     3.6070   -14.9460 N.ar         1 SAM237   0.0000
    25 C2           2.9630     3.2060   -14.4690 C.ar         1 SAM237   0.0000
    26 N3           3.1050     2.7550   -13.1710 N.ar         1 SAM237   0.0000
    27 C4           1.9920     2.7070   -12.3780 C.ar         1 SAM237   0.0000
    28 H1           0.9664    -0.7303    -9.2686 H            1 SAM237   0.0000
    29 H2           2.2973    -1.6741    -9.3383 H            1 SAM237   0.0000
    30 HA           2.1532    -0.7234    -7.2484 H            1 SAM237   0.0000
    31 HB1          0.2180    -1.3875    -5.8215 H            1 SAM237   0.0000
    32 HB2         -0.5397    -1.6586    -7.2424 H            1 SAM237   0.0000
    33 HG1         -1.0855     0.5251    -6.6216 H            1 SAM237   0.0000
    34 HG2         -0.0254     0.6564    -7.8566 H            1 SAM237   0.0000
    35 HE1          0.3439     3.0007    -4.2912 H            1 SAM237   0.0000
    36 HE2         -0.7070     2.9718    -5.5408 H            1 SAM237   0.0000
    37 HE3         -0.7913     1.8300    -4.3764 H            1 SAM237   0.0000
    38 H5'1         1.9161     3.4075    -6.4376 H            1 SAM237   0.0000
    39 H5'2         0.8373     2.9275    -7.5657 H            1 SAM237   0.0000
    40 H4'          3.3912     1.6597    -7.3364 H            1 SAM237   0.0000
    41 H3'          2.7383     4.1029    -8.6503 H            1 SAM237   0.0000
    42 H15          4.2193     4.8209    -7.3759 H            1 SAM237   0.0000
    43 H2'          3.9922     3.5722   -10.4955 H            1 SAM237   0.0000
    44 H17          5.8368     2.8182    -9.2391 H            1 SAM237   0.0000
    45 H1'          3.3326     1.0294   -10.6139 H            1 SAM237   0.0000
    46 H19          0.0880     2.2635    -9.8746 H            1 SAM237   0.0000
    47 H20         -0.6001     4.2723   -15.6027 H            1 SAM237   0.0000
    48 H21         -1.3647     3.9425   -14.0839 H            1 SAM237   0.0000
    49 H22          3.7616     3.2421   -15.0697 H            1 SAM237   0.0000
    50 H23          0.8228    -2.3535    -9.1622 H            1 SAM237   0.0000
@<TRIPOS>BOND
     1    1    2       1
     2    2    3       1
     3    2    6       1
     4    3    4      ar
     5    3    5      ar
     6    6    7       1
     7    7    8       1
     8    8    9       1
     9    8   10       1
    10   10   11       1
    11   11   12       1
    12   11   13       1
    13   12   17       1
    14   13   14       1
    15   13   15       1
    16   15   16       1
    17   15   17       1
    18   17   18       1
    19   18   19       1
    20   18   27       1
    21   19   20       2
    22   20   21       1
    23   21   22      ar
    24   21   27      ar
    25   22   23       1
    26   22   24      ar
    27   24   25      ar
    28   25   26      ar
    29   26   27      ar
    30    1   28       1
    31    1   29       1
    32    2   30       1
    33    1   50       1
    34    6   31       1
    35    6   32       1
    36    7   33       1
    37    7   34       1
    38    9   35       1
    39    9   36       1
    40    9   37       1
    41   10   38       1
    42   10   39       1
    43   11   40       1
    44   13   41       1
    45   14   42       1
    46   15   43       1
    47   16   44       1
    48   17   45       1
    49   19   46       1
    50   23   47       1
    51   23   48       1
    52   25   49       1
@<TRIPOS>SUBSTRUCTURE
     1 SAM237      1 GROUP             4 A     SAM     0 **** SAM A 237
