@<TRIPOS>MOLECULE
5bqf_NAP_1_ligand
   73    77     1     0     0
SMALL
NO_CHARGES


@<TRIPOS>ATOM
     1 PA          30.6120    -5.1890    -1.4650 P.3          1 NAP403   0.0000
     2 O1A         29.4700    -4.2250    -1.4190 O.co2        1 NAP403   0.0000
     3 O2A         31.8960    -4.9130    -0.7350 O.co2        1 NAP403  -1.0000
     4 O5B         31.0080    -5.4750    -2.9880 O.3          1 NAP403   0.0000
     5 C5B         29.9800    -5.7360    -3.9260 C.3          1 NAP403   0.0000
     6 C4B         30.6370    -5.9670    -5.2750 C.3          1 NAP403   0.0000
     7 O4B         29.5760    -6.2940    -6.1980 O.3          1 NAP403   0.0000
     8 C3B         31.3660    -4.7330    -5.8290 C.3          1 NAP403   0.0000
     9 O3B         32.5740    -5.1420    -6.4820 O.3          1 NAP403   0.0000
    10 C2B         30.3890    -4.1920    -6.8650 C.3          1 NAP403   0.0000
    11 O2B         30.9480    -3.4330    -7.9470 O.3          1 NAP403   0.0000
    12 C1B         29.7170    -5.4670    -7.3400 C.3          1 NAP403   0.0000
    13 N9A         28.4180    -5.1720    -7.9760 N.pl3        1 NAP403   0.0000
    14 C8A         27.2740    -4.6650    -7.4130 C.2          1 NAP403   0.0000
    15 N7A         26.3210    -4.4590    -8.2970 N.2          1 NAP403   0.0000
    16 C5A         26.8880    -4.8450    -9.5140 C.ar         1 NAP403   0.0000
    17 C6A         26.4090    -4.8440   -10.8410 C.ar         1 NAP403   0.0000
    18 N6A         25.1640    -4.4500   -11.1720 N.pl3        1 NAP403   0.0000
    19 N1A         27.2320    -5.2790   -11.8030 N.ar         1 NAP403   0.0000
    20 C2A         28.4810    -5.6790   -11.4960 C.ar         1 NAP403   0.0000
    21 N3A         29.0220    -5.7200   -10.2750 N.ar         1 NAP403   0.0000
    22 C4A         28.1860    -5.2680    -9.3230 C.ar         1 NAP403   0.0000
    23 O3          30.0090    -6.5950    -1.0170 O.3          1 NAP403   0.0000
    24 PN          30.6420    -7.8300    -0.2280 P.3          1 NAP403   0.0000
    25 O1N         30.9280    -7.4230     1.1530 O.co2        1 NAP403   0.0000
    26 O2N         31.7520    -8.3900    -1.0180 O.co2        1 NAP403  -1.0000
    27 O5D         29.3940    -8.8320    -0.1650 O.3          1 NAP403   0.0000
    28 C5D         28.6700    -9.2100    -1.3230 C.3          1 NAP403   0.0000
    29 C4D         27.3280    -9.8060    -0.9220 C.3          1 NAP403   0.0000
    30 O4D         27.4680   -11.1040    -0.3640 O.3          1 NAP403   0.0000
    31 C3D         26.5320    -9.0580     0.1400 C.3          1 NAP403   0.0000
    32 O3D         25.8900    -7.8940    -0.3900 O.3          1 NAP403   0.0000
    33 C2D         25.5400   -10.1210     0.6040 C.3          1 NAP403   0.0000
    34 O2D         24.3810   -10.0730    -0.2250 O.3          1 NAP403   0.0000
    35 C1D         26.3100   -11.4220     0.3690 C.3          1 NAP403   0.0000
    36 N1N         26.7180   -12.1510     1.5680 N.ar         1 NAP403   1.0000
    37 C2N         26.4460   -13.4670     1.6620 C.ar         1 NAP403   0.0000
    38 C3N         26.8190   -14.2110     2.7920 C.ar         1 NAP403   0.0000
    39 C7N         26.4920   -15.6660     2.9840 C.2          1 NAP403   0.0000
    40 O7N         26.5360   -16.1730     4.0890 O.2          1 NAP403   0.0000
    41 N7N         26.1680   -16.3960     1.9150 N.am         1 NAP403   0.0000
    42 C4N         27.5200   -13.5470     3.8110 C.ar         1 NAP403   0.0000
    43 C5N         27.8250   -12.2000     3.6670 C.ar         1 NAP403   0.0000
    44 C6N         27.4120   -11.5030     2.5340 C.ar         1 NAP403   0.0000
    45 P2B         31.8190    -2.1140    -7.6280 P.3          1 NAP403   0.0000
    46 O1X         33.1440    -2.5920    -7.0290 O.co2        1 NAP403   0.0000
    47 O2X         31.9730    -1.4190    -8.9760 O.co2        1 NAP403  -1.0000
    48 O3X         31.0380    -1.2940    -6.5900 O.co2        1 NAP403  -1.0000
    49 H5B1        29.3596    -4.9535    -3.9785 H            1 NAP403   0.0000
    50 H5B2        29.4675    -6.5500    -3.6525 H            1 NAP403   0.0000
    51 H4B         31.2754    -6.7341    -5.2111 H            1 NAP403   0.0000
    52 H3B         31.5472    -4.0614    -5.1106 H            1 NAP403   0.0000
    53 H5          33.2560    -4.4144    -6.4075 H            1 NAP403   0.0000
    54 H2B         29.7084    -3.6277    -6.3976 H            1 NAP403   0.0000
    55 H1B         30.3106    -5.9227    -8.0033 H            1 NAP403   0.0000
    56 H8A         27.1751    -4.4728    -6.4366 H            1 NAP403   0.0000
    57 H6A1        24.8716    -4.4677   -12.1281 H            1 NAP403   0.0000
    58 H6A2        24.5323    -4.1398   -10.4616 H            1 NAP403   0.0000
    59 H2A         29.0599    -5.9741   -12.2561 H            1 NAP403   0.0000
    60 H5D1        29.1950    -9.8896    -1.8354 H            1 NAP403   0.0000
    61 H5D2        28.5175    -8.4050    -1.8964 H            1 NAP403   0.0000
    62 H4D         26.7614    -9.8788    -1.7428 H            1 NAP403   0.0000
    63 H3D         27.1329    -8.8002     0.8966 H            1 NAP403   0.0000
    64 H16         26.1006    -7.8116    -1.3641 H            1 NAP403   0.0000
    65 H2D         25.3044   -10.0048     1.5689 H            1 NAP403   0.0000
    66 H18         24.6425   -10.2490    -1.1740 H            1 NAP403   0.0000
    67 H1D         25.7416   -12.0272    -0.1884 H            1 NAP403   0.0000
    68 H2N         25.9685   -13.9232     0.9111 H            1 NAP403   0.0000
    69 H7N1        25.9469   -17.3656     2.0200 H            1 NAP403   0.0000
    70 H7N2        26.1463   -15.9735     1.0089 H            1 NAP403   0.0000
    71 H4N         27.7978   -14.0407     4.6350 H            1 NAP403   0.0000
    72 H5N         28.3436   -11.7282     4.3801 H            1 NAP403   0.0000
    73 H6N         27.6263   -10.5313     2.4345 H            1 NAP403   0.0000
@<TRIPOS>BOND
     1    1    2      ar
     2    1    3      ar
     3    1    4       1
     4    1   23       1
     5    4    5       1
     6    5    6       1
     7    6    7       1
     8    6    8       1
     9    7   12       1
    10    8    9       1
    11    8   10       1
    12   10   11       1
    13   10   12       1
    14   11   45       1
    15   12   13       1
    16   13   14       1
    17   13   22       1
    18   14   15       2
    19   15   16       1
    20   16   17      ar
    21   16   22      ar
    22   17   18       1
    23   17   19      ar
    24   19   20      ar
    25   20   21      ar
    26   21   22      ar
    27   23   24       1
    28   24   25      ar
    29   24   26      ar
    30   24   27       1
    31   27   28       1
    32   28   29       1
    33   29   30       1
    34   29   31       1
    35   30   35       1
    36   31   32       1
    37   31   33       1
    38   33   34       1
    39   33   35       1
    40   35   36       1
    41   36   37      ar
    42   36   44      ar
    43   37   38      ar
    44   38   39       1
    45   38   42      ar
    46   39   40       2
    47   39   41      am
    48   42   43      ar
    49   43   44      ar
    50   45   46      ar
    51   45   47      ar
    52   45   48      ar
    53   43   72       1
    54    5   49       1
    55    5   50       1
    56    6   51       1
    57    8   52       1
    58    9   53       1
    59   10   54       1
    60   12   55       1
    61   14   56       1
    62   18   57       1
    63   18   58       1
    64   20   59       1
    65   44   73       1
    66   28   60       1
    67   28   61       1
    68   29   62       1
    69   31   63       1
    70   32   64       1
    71   33   65       1
    72   34   66       1
    73   35   67       1
    74   37   68       1
    75   41   69       1
    76   41   70       1
    77   42   71       1
@<TRIPOS>SUBSTRUCTURE
     1 NAP403      1 GROUP             4 A     NAP     0 **** NAP A 403
