@<TRIPOS>MOLECULE
3k9v_CPS_4_ligand
  100   103     1     0     0
SMALL
NO_CHARGES


@<TRIPOS>ATOM
     1 C1         -26.6470    -7.4840    79.8100 C.3          1 CPS700   0.0000
     2 C2         -26.1890    -6.7930    78.5200 C.3          1 CPS700   0.0000
     3 C3         -26.4660    -4.4900    79.6010 C.3          1 CPS700   0.0000
     4 C4         -26.9580    -3.0360    79.4620 C.3          1 CPS700   0.0000
     5 C5         -26.5170    -2.4020    78.1240 C.3          1 CPS700   0.0000
     6 C6         -27.0240    -3.3110    76.9820 C.3          1 CPS700   0.0000
     7 C7         -26.7120    -2.4630    75.7500 C.3          1 CPS700   0.0000
     8 C8         -27.2680    -1.1120    76.1850 C.3          1 CPS700   0.0000
     9 C9         -27.3000    -1.1310    77.7180 C.3          1 CPS700   0.0000
    10 C10        -24.9930    -2.1600    78.1200 C.3          1 CPS700   0.0000
    11 C11        -24.6590    -6.6930    78.6160 C.3          1 CPS700   0.0000
    12 C12        -28.1250    -7.8970    79.8470 C.3          1 CPS700   0.0000
    13 C13        -28.5110    -8.7780    78.6550 C.3          1 CPS700   0.0000
    14 C14        -28.0650    -8.1350    77.3370 C.3          1 CPS700   0.0000
    15 C15        -26.5900    -7.6830    77.3200 C.3          1 CPS700   0.0000
    16 C16        -26.2660    -7.0460    75.9480 C.3          1 CPS700   0.0000
    17 C17        -26.7350    -5.5840    75.8180 C.3          1 CPS700   0.0000
    18 C18        -26.3920    -4.7130    77.0510 C.3          1 CPS700   0.0000
    19 C19        -26.8050    -5.3780    78.3860 C.3          1 CPS700   0.0000
    20 C20        -26.7890     0.1820    78.3330 C.3          1 CPS700   0.0000
    21 C21        -26.8930     0.2610    79.8620 C.3          1 CPS700   0.0000
    22 C22        -27.4730     1.4040    77.7010 C.3          1 CPS700   0.0000
    23 C23        -28.9020     1.6750    78.1820 C.3          1 CPS700   0.0000
    24 C24        -29.4560     2.8370    77.3980 C.2          1 CPS700   0.0000
    25 C25        -29.4630     5.2520    77.0640 C.3          1 CPS700   0.0000
    26 C26        -30.5530     5.9340    77.9110 C.3          1 CPS700   0.0000
    27 C27        -30.8700     7.3690    77.4520 C.3          1 CPS700   0.0000
    28 C28        -33.1300     7.0060    78.4030 C.3          1 CPS700   0.0000
    29 C29        -32.6550     9.0000    77.1560 C.3          1 CPS700   0.0000
    30 C30        -31.6830     8.6670    79.4160 C.3          1 CPS700   0.0000
    31 C31        -30.9000     9.9880    79.2990 C.3          1 CPS700   0.0000
    32 C32        -30.1600    10.3380    80.5960 C.3          1 CPS700   0.0000
    33 N1         -29.0650     4.0150    77.7390 N.am         1 CPS700   0.0000
    34 N2         -32.0610     8.0130    78.1140 N.4          1 CPS700   1.0000
    35 O1         -30.3000     2.5390    76.4120 O.2          1 CPS700   0.0000
    36 O2         -29.9380    -8.8520    78.6550 O.3          1 CPS700   0.0000
    37 O3         -28.1400    -5.5560    75.5740 O.3          1 CPS700   0.0000
    38 O4         -28.3880    -2.9500    79.5930 O.3          1 CPS700   0.0000
    39 O2S        -27.7260     9.7770    79.3260 O.co2        1 CPS700   0.0000
    40 O3S        -27.7460    10.4140    82.0130 O.co2        1 CPS700   0.0000
    41 O1S        -28.8100     7.9830    81.1520 O.co2        1 CPS700  -1.0000
    42 S          -28.6150     9.6300    80.7730 S.o2         1 CPS700   0.0000
    43 H1         -26.4829    -6.8564    80.5711 H            1 CPS700   0.0000
    44 H2         -26.0934    -8.3078    79.9320 H            1 CPS700   0.0000
    45 H3         -26.8903    -4.8906    80.4131 H            1 CPS700   0.0000
    46 H4         -25.4727    -4.4776    79.7157 H            1 CPS700   0.0000
    47 H5         -26.5500    -2.5025    80.2029 H            1 CPS700   0.0000
    48 H6         -28.0164    -3.4033    77.0636 H            1 CPS700   0.0000
    49 H7         -27.1800    -2.8091    74.9369 H            1 CPS700   0.0000
    50 H8         -25.7286    -2.4170    75.5743 H            1 CPS700   0.0000
    51 H9         -28.1907    -0.9843    75.8213 H            1 CPS700   0.0000
    52 H10        -26.6766    -0.3738    75.8604 H            1 CPS700   0.0000
    53 H11        -28.2508    -1.2530    78.0029 H            1 CPS700   0.0000
    54 H12        -24.7229    -1.7499    77.2489 H            1 CPS700   0.0000
    55 H13        -24.7516    -1.5422    78.8683 H            1 CPS700   0.0000
    56 H14        -24.5168    -3.0311    78.2402 H            1 CPS700   0.0000
    57 H15        -24.3020    -6.2470    77.7953 H            1 CPS700   0.0000
    58 H16        -24.4100    -6.1562    79.4222 H            1 CPS700   0.0000
    59 H17        -24.2692    -7.6107    78.6931 H            1 CPS700   0.0000
    60 H18        -28.6901    -7.0721    79.8338 H            1 CPS700   0.0000
    61 H19        -28.2962    -8.4048    80.6913 H            1 CPS700   0.0000
    62 H20        -28.1134    -9.6905    78.7512 H            1 CPS700   0.0000
    63 H21        -28.6401    -7.3345    77.1684 H            1 CPS700   0.0000
    64 H22        -28.1972    -8.8010    76.6028 H            1 CPS700   0.0000
    65 H23        -26.0374    -8.5139    77.3852 H            1 CPS700   0.0000
    66 H24        -26.7141    -7.5859    75.2355 H            1 CPS700   0.0000
    67 H25        -25.2755    -7.0730    75.8133 H            1 CPS700   0.0000
    68 H26        -26.2776    -5.1846    75.0235 H            1 CPS700   0.0000
    69 H27        -25.3992    -4.5946    77.0686 H            1 CPS700   0.0000
    70 H28        -27.7988    -5.4879    78.3674 H            1 CPS700   0.0000
    71 H29        -25.8171     0.2469    78.1067 H            1 CPS700   0.0000
    72 H30        -26.5407     1.1430    80.1749 H            1 CPS700   0.0000
    73 H31        -27.8502     0.1681    80.1362 H            1 CPS700   0.0000
    74 H32        -26.3559    -0.4766    80.2712 H            1 CPS700   0.0000
    75 H33        -27.5012     1.2649    76.7111 H            1 CPS700   0.0000
    76 H34        -26.9189     2.2101    77.9086 H            1 CPS700   0.0000
    77 H35        -28.8935     1.8986    79.1566 H            1 CPS700   0.0000
    78 H36        -29.4685     0.8649    78.0308 H            1 CPS700   0.0000
    79 H37        -28.6731     5.8590    76.9766 H            1 CPS700   0.0000
    80 H38        -29.8232     5.0408    76.1554 H            1 CPS700   0.0000
    81 H39        -30.2435     5.9656    78.8614 H            1 CPS700   0.0000
    82 H40        -31.3894     5.3892    77.8508 H            1 CPS700   0.0000
    83 H41        -31.0395     7.3471    76.4667 H            1 CPS700   0.0000
    84 H42        -30.0686     7.9368    77.6398 H            1 CPS700   0.0000
    85 H43        -33.9060     7.4600    78.8409 H            1 CPS700   0.0000
    86 H44        -33.4302     6.5837    77.5477 H            1 CPS700   0.0000
    87 H45        -32.7680     6.3015    79.0135 H            1 CPS700   0.0000
    88 H46        -33.4483     9.4385    77.5784 H            1 CPS700   0.0000
    89 H47        -31.9728     9.6944    76.9271 H            1 CPS700   0.0000
    90 H48        -32.9404     8.5258    76.3231 H            1 CPS700   0.0000
    91 H49        -32.5253     8.8532    79.9219 H            1 CPS700   0.0000
    92 H50        -31.1201     8.0212    79.9319 H            1 CPS700   0.0000
    93 H51        -31.5413    10.7249    79.0849 H            1 CPS700   0.0000
    94 H52        -30.2319     9.9023    78.5599 H            1 CPS700   0.0000
    95 H53        -30.7260    10.0392    81.3643 H            1 CPS700   0.0000
    96 H54        -30.0498    11.3313    80.6297 H            1 CPS700   0.0000
    97 H55        -28.4455     4.0908    78.5203 H            1 CPS700   0.0000
    98 H56        -30.2758    -8.7740    79.5930 H            1 CPS700   0.0000
    99 H57        -28.4448    -4.6073    75.4896 H            1 CPS700   0.0000
   100 H58        -28.6344    -2.0616    79.9803 H            1 CPS700   0.0000
@<TRIPOS>BOND
     1    1    2       1
     2    1   12       1
     3    2   11       1
     4    2   15       1
     5    2   19       1
     6    3    4       1
     7    3   19       1
     8    4    5       1
     9    4   38       1
    10    5    6       1
    11    5    9       1
    12    5   10       1
    13    6    7       1
    14    6   18       1
    15    7    8       1
    16    8    9       1
    17    9   20       1
    18   12   13       1
    19   13   14       1
    20   13   36       1
    21   14   15       1
    22   15   16       1
    23   16   17       1
    24   17   18       1
    25   17   37       1
    26   18   19       1
    27   20   21       1
    28   20   22       1
    29   22   23       1
    30   23   24       1
    31   24   33      am
    32   24   35       2
    33   25   26       1
    34   25   33       1
    35   26   27       1
    36   27   34       1
    37   28   34       1
    38   29   34       1
    39   30   31       1
    40   30   34       1
    41   31   32       1
    42   32   42       1
    43   39   42      ar
    44   40   42      ar
    45   41   42      ar
    46    1   43       1
    47    1   44       1
    48    3   45       1
    49    3   46       1
    50    4   47       1
    51    6   48       1
    52    7   49       1
    53    7   50       1
    54    8   51       1
    55    8   52       1
    56    9   53       1
    57   10   54       1
    58   10   55       1
    59   10   56       1
    60   11   57       1
    61   11   58       1
    62   11   59       1
    63   12   60       1
    64   12   61       1
    65   13   62       1
    66   14   63       1
    67   14   64       1
    68   15   65       1
    69   16   66       1
    70   16   67       1
    71   17   68       1
    72   18   69       1
    73   19   70       1
    74   20   71       1
    75   21   72       1
    76   21   73       1
    77   21   74       1
    78   22   75       1
    79   22   76       1
    80   23   77       1
    81   23   78       1
    82   25   79       1
    83   25   80       1
    84   26   81       1
    85   26   82       1
    86   27   83       1
    87   27   84       1
    88   28   85       1
    89   28   86       1
    90   28   87       1
    91   29   88       1
    92   29   89       1
    93   29   90       1
    94   30   91       1
    95   30   92       1
    96   31   93       1
    97   31   94       1
    98   32   95       1
    99   32   96       1
   100   33   97       1
   101   36   98       1
   102   37   99       1
   103   38  100       1
@<TRIPOS>SUBSTRUCTURE
     1 CPS700      1 GROUP             4 B     CPS     0 **** CPS B 700
