@<TRIPOS>MOLECULE
4nbi_D3Y_2_ligand
   55    58     1     0     0
SMALL
NO_CHARGES


@<TRIPOS>ATOM
     1 CD1        -13.4510    -1.8620    -3.4420 C.ar         1 D3Y201   0.0000
     2 CE1        -12.3120    -1.7630    -2.6420 C.ar         1 D3Y201   0.0000
     3 CZ         -11.1260    -2.3760    -3.0510 C.ar         1 D3Y201   0.0000
     4 OH         -10.0120    -2.2820    -2.2710 O.3          1 D3Y201   0.0000
     5 CE2        -11.0790    -3.0920    -4.2530 C.ar         1 D3Y201   0.0000
     6 CD2        -12.2190    -3.1890    -5.0530 C.ar         1 D3Y201   0.0000
     7 CG         -13.4100    -2.5810    -4.6390 C.ar         1 D3Y201   0.0000
     8 CB         -14.6680    -2.6730    -5.5120 C.3          1 D3Y201   0.0000
     9 CA         -15.5740    -3.8880    -5.2310 C.3          1 D3Y201   0.0000
    10 N          -14.7700    -5.1340    -5.1860 N.4          1 D3Y201   1.0000
    11 C          -16.3780    -3.6680    -3.9270 C.2          1 D3Y201   0.0000
    12 O          -17.0900    -2.6660    -3.7600 O.2          1 D3Y201   0.0000
    13 N8         -16.2210    -4.6400    -3.0260 N.am         1 D3Y201   0.0000
    14 C3'        -16.8640    -4.6190    -1.7030 C.3          1 D3Y201   0.0000
    15 C2'        -17.9170    -5.7100    -1.5910 C.3          1 D3Y201   0.0000
    16 O2'        -17.4850    -6.9190    -2.2440 O.3          1 D3Y201   0.0000
    17 C4'        -15.8440    -5.0120    -0.6220 C.3          1 D3Y201   0.0000
    18 C5'        -15.2370    -3.7600     0.0130 C.3          1 D3Y201   0.0000
    19 O5'        -14.6720    -4.1000     1.2800 O.3          1 D3Y201   0.0000
    20 O4'        -16.5820    -5.7870     0.3810 O.3          1 D3Y201   0.0000
    21 C1'        -17.9610    -5.9320    -0.0720 C.3          1 D3Y201   0.0000
    22 N9         -18.8400    -5.0140     0.7470 N.pl3        1 D3Y201   0.0000
    23 C8         -18.5090    -4.5220     1.9440 C.2          1 D3Y201   0.0000
    24 N7         -19.5010    -3.7660     2.4100 N.2          1 D3Y201   0.0000
    25 C5         -20.4800    -3.7810     1.5180 C.ar         1 D3Y201   0.0000
    26 C4         -20.0680    -4.5730     0.4550 C.ar         1 D3Y201   0.0000
    27 N3         -20.9020    -4.7430    -0.5920 N.ar         1 D3Y201   0.0000
    28 C2         -22.1010    -4.1540    -0.6180 C.ar         1 D3Y201   0.0000
    29 N1         -22.5130    -3.3780     0.3820 N.ar         1 D3Y201   0.0000
    30 C6         -21.7300    -3.1760     1.4680 C.ar         1 D3Y201   0.0000
    31 N6         -22.1390    -2.4110     2.4840 N.pl3        1 D3Y201   0.0000
    32 HD1        -14.2999    -1.4165    -3.1574 H            1 D3Y201   0.0000
    33 HE1        -12.3449    -1.2559    -1.7807 H            1 D3Y201   0.0000
    34 HH          -9.1606    -2.7196    -2.5603 H            1 D3Y201   0.0000
    35 HE2        -10.2287    -3.5341    -4.5387 H            1 D3Y201   0.0000
    36 HD2        -12.1849    -3.6904    -5.9176 H            1 D3Y201   0.0000
    37 HB1        -14.3785    -2.7174    -6.4682 H            1 D3Y201   0.0000
    38 HB2        -15.2077    -1.8440    -5.3653 H            1 D3Y201   0.0000
    39 HA         -16.2255    -3.9682    -5.9854 H            1 D3Y201   0.0000
    40 H9         -15.3710    -5.9121    -5.0031 H            1 D3Y201   0.0000
    41 H10        -14.3111    -5.2665    -6.0646 H            1 D3Y201   0.0000
    42 H11        -15.6393    -5.4187    -3.2611 H            1 D3Y201   0.0000
    43 H3'        -17.2588    -3.7204    -1.5119 H            1 D3Y201   0.0000
    44 H2'        -18.8015    -5.4016    -1.9410 H            1 D3Y201   0.0000
    45 H14        -18.2820    -7.4141    -2.5899 H            1 D3Y201   0.0000
    46 H4'        -15.1216    -5.5748    -1.0237 H            1 D3Y201   0.0000
    47 H5'1       -15.9500    -3.0703     0.1394 H            1 D3Y201   0.0000
    48 H5'2       -14.5227    -3.3953    -0.5843 H            1 D3Y201   0.0000
    49 H5'        -13.6935    -3.8937     1.2748 H            1 D3Y201   0.0000
    50 H1'        -18.2487    -6.8745     0.0982 H            1 D3Y201   0.0000
    51 H20        -17.6461    -4.6954     2.4186 H            1 D3Y201   0.0000
    52 H21        -22.7011    -4.2991    -1.4047 H            1 D3Y201   0.0000
    53 H22        -23.0380    -1.9744     2.4508 H            1 D3Y201   0.0000
    54 H23        -21.5461    -2.2750     3.2777 H            1 D3Y201   0.0000
    55 H24        -14.0860    -5.0633    -4.4600 H            1 D3Y201   0.0000
@<TRIPOS>BOND
     1    1    2      ar
     2    1    7      ar
     3    2    3      ar
     4    3    4       1
     5    3    5      ar
     6    5    6      ar
     7    6    7      ar
     8    7    8       1
     9    8    9       1
    10    9   10       1
    11    9   11       1
    12   11   12       2
    13   11   13      am
    14   13   14       1
    15   14   15       1
    16   14   17       1
    17   15   16       1
    18   15   21       1
    19   17   18       1
    20   17   20       1
    21   18   19       1
    22   20   21       1
    23   21   22       1
    24   22   23       1
    25   22   26       1
    26   23   24       2
    27   24   25       1
    28   25   26      ar
    29   25   30      ar
    30   26   27      ar
    31   27   28      ar
    32   28   29      ar
    33   29   30      ar
    34   30   31       1
    35    1   32       1
    36    2   33       1
    37    4   34       1
    38    5   35       1
    39    6   36       1
    40    8   37       1
    41    8   38       1
    42    9   39       1
    43   10   40       1
    44   10   41       1
    45   13   42       1
    46   14   43       1
    47   15   44       1
    48   16   45       1
    49   17   46       1
    50   18   47       1
    51   18   48       1
    52   19   49       1
    53   21   50       1
    54   23   51       1
    55   28   52       1
    56   31   53       1
    57   31   54       1
    58   10   55       1
@<TRIPOS>SUBSTRUCTURE
     1 D3Y201      1 GROUP             4 B     D3Y     0 **** D3Y B 201
