@<TRIPOS>MOLECULE
3eq1_DPM_1_ligand
   50    51     1     0     0
SMALL
NO_CHARGES


@<TRIPOS>ATOM
     1 C1A         32.2710    12.1280    14.2680 C.2          1 DPM400   0.0000
     2 C2A         33.0660    12.2360    15.3980 C.2          1 DPM400   0.0000
     3 C3A         32.2670    11.8240    16.4520 C.2          1 DPM400   0.0000
     4 C4A         31.0190    11.5000    15.9180 C.2          1 DPM400   0.0000
     5 C5A         34.5310    12.6890    15.4660 C.3          1 DPM400   0.0000
     6 C6A         34.6400    14.1910    15.6970 C.2          1 DPM400   0.0000
     7 C7A         32.6800    11.7810    17.9250 C.3          1 DPM400   0.0000
     8 C8A         32.9410    10.3850    18.4790 C.3          1 DPM400   0.0000
     9 C9A         33.3230    10.5310    19.9530 C.2          1 DPM400   0.0000
    10 CHA         32.7260    12.4720    12.8470 C.3          1 DPM400   0.0000
    11 NA          31.0580    11.6910    14.5970 N.pl3        1 DPM400   0.0000
    12 O1A         33.5820    14.8080    15.9500 O.co2        1 DPM400   0.0000
    13 O2A         35.7830    14.6840    15.6110 O.co2        1 DPM400  -1.0000
    14 O3A         32.4320    10.9250    20.7310 O.co2        1 DPM400   0.0000
    15 O4A         34.5020    10.2820    20.2700 O.co2        1 DPM400  -1.0000
    16 C1B         28.6700    12.0150    16.5450 C.2          1 DPM400   0.0000
    17 C2B         28.1150    12.7770    17.5610 C.2          1 DPM400   0.0000
    18 C3B         27.1330    13.5580    16.9590 C.2          1 DPM400   0.0000
    19 C4B         27.1280    13.2670    15.6600 C.2          1 DPM400   0.0000
    20 C5B         28.5050    12.7310    19.0460 C.3          1 DPM400   0.0000
    21 C6B         29.3870    13.9160    19.4410 C.2          1 DPM400   0.0000
    22 C7B         26.2260    14.5750    17.6550 C.3          1 DPM400   0.0000
    23 C8B         26.4410    15.9980    17.1170 C.3          1 DPM400   0.0000
    24 C9B         26.1230    16.1270    15.6210 C.2          1 DPM400   0.0000
    25 CHB         29.7960    10.9970    16.6980 C.3          1 DPM400   0.0000
    26 NB          28.0520    12.3380    15.4100 N.pl3        1 DPM400   0.0000
    27 O1B         29.4710    14.1720    20.6630 O.co2        1 DPM400   0.0000
    28 O2B         29.9620    14.5300    18.5220 O.co2        1 DPM400  -1.0000
    29 O3B         26.8080    16.9330    14.9580 O.co2        1 DPM400   0.0000
    30 O4B         25.1820    15.4400    15.1760 O.co2        1 DPM400  -1.0000
    31 H5A1        34.9827    12.4590    14.6040 H            1 DPM400   0.0000
    32 H5A2        34.9846    12.2107    16.2180 H            1 DPM400   0.0000
    33 H7A1        31.9485    12.1975    18.4648 H            1 DPM400   0.0000
    34 H7A2        33.5175    12.3176    18.0284 H            1 DPM400   0.0000
    35 H8A1        33.6890     9.9533    17.9749 H            1 DPM400   0.0000
    36 H8A2        32.1161     9.8260    18.3951 H            1 DPM400   0.0000
    37 HHA1        31.9738    12.3111    12.2080 H            1 DPM400   0.0000
    38 HHA2        32.9970    13.4338    12.8074 H            1 DPM400   0.0000
    39 HHA3        33.5043    11.8958    12.5975 H            1 DPM400   0.0000
    40 HA          30.3024    11.5322    13.9615 H            1 DPM400   0.0000
    41 H4B         26.5252    13.6806    14.9776 H            1 DPM400   0.0000
    42 H5B1        29.0046    11.8830    19.2229 H            1 DPM400   0.0000
    43 H5B2        27.6724    12.7490    19.5996 H            1 DPM400   0.0000
    44 H7B1        26.4238    14.5668    18.6352 H            1 DPM400   0.0000
    45 H7B2        25.2725    14.3135    17.5051 H            1 DPM400   0.0000
    46 H8B1        27.3969    16.2530    17.2629 H            1 DPM400   0.0000
    47 H8B2        25.8480    16.6235    17.6241 H            1 DPM400   0.0000
    48 HHB1        30.0307    10.8968    17.6649 H            1 DPM400   0.0000
    49 HHB2        29.5034    10.1133    16.3327 H            1 DPM400   0.0000
    50 HB          28.2497    11.9457    14.5117 H            1 DPM400   0.0000
@<TRIPOS>BOND
     1    1    2       2
     2    1   10       1
     3    1   11       1
     4    2    3       1
     5    2    5       1
     6    3    4       2
     7    3    7       1
     8    4   11       1
     9    4   25       1
    10    5    6       1
    11    6   12      ar
    12    6   13      ar
    13    7    8       1
    14    8    9       1
    15    9   14      ar
    16    9   15      ar
    17   16   17       2
    18   16   25       1
    19   16   26       1
    20   17   18       1
    21   17   20       1
    22   18   19       2
    23   18   22       1
    24   19   26       1
    25   20   21       1
    26   21   27      ar
    27   21   28      ar
    28   22   23       1
    29   23   24       1
    30   24   29      ar
    31   24   30      ar
    32    5   31       1
    33    5   32       1
    34    7   33       1
    35    7   34       1
    36    8   35       1
    37    8   36       1
    38   10   37       1
    39   10   38       1
    40   10   39       1
    41   11   40       1
    42   25   49       1
    43   26   50       1
    44   19   41       1
    45   20   42       1
    46   20   43       1
    47   22   44       1
    48   22   45       1
    49   23   46       1
    50   23   47       1
    51   25   48       1
@<TRIPOS>SUBSTRUCTURE
     1 DPM400      1 GROUP             4 A     DPM     0 **** DPM A 400
