@<TRIPOS>MOLECULE
4wlu_NAD_3_ligand
   70    74     1     0     0
SMALL
NO_CHARGES


@<TRIPOS>ATOM
     1 PA          34.6080   -11.8380   -36.0420 P.3          1 NAD402   0.0000
     2 O1A         34.1780   -12.6510   -34.8900 O.co2        1 NAD402   0.0000
     3 O2A         34.7200   -10.3740   -35.8850 O.co2        1 NAD402  -1.0000
     4 O5B         33.5960   -12.0980   -37.2530 O.3          1 NAD402   0.0000
     5 C5B         33.3070   -13.3930   -37.7060 C.3          1 NAD402   0.0000
     6 C4B         31.8910   -13.3200   -38.2930 C.3          1 NAD402   0.0000
     7 O4B         31.5620   -14.6710   -38.7050 O.3          1 NAD402   0.0000
     8 C3B         30.8360   -12.9090   -37.2430 C.3          1 NAD402   0.0000
     9 O3B         29.9180   -11.9480   -37.8050 O.3          1 NAD402   0.0000
    10 C2B         30.1200   -14.2030   -36.9580 C.3          1 NAD402   0.0000
    11 O2B         28.7430   -13.9840   -36.6210 O.3          1 NAD402   0.0000
    12 C1B         30.2080   -14.9020   -38.3000 C.3          1 NAD402   0.0000
    13 N9A         29.8470   -16.3390   -38.1580 N.pl3        1 NAD402   0.0000
    14 C8A         30.2570   -17.2100   -37.2360 C.2          1 NAD402   0.0000
    15 N7A         29.6690   -18.3770   -37.4740 N.2          1 NAD402   0.0000
    16 C5A         28.8910   -18.2330   -38.5450 C.ar         1 NAD402   0.0000
    17 C6A         28.1000   -19.0960   -39.1870 C.ar         1 NAD402   0.0000
    18 N6A         28.0540   -20.3340   -38.7020 N.pl3        1 NAD402   0.0000
    19 N1A         27.3920   -18.7360   -40.2690 N.ar         1 NAD402   0.0000
    20 C2A         27.4910   -17.4140   -40.7220 C.ar         1 NAD402   0.0000
    21 N3A         28.3250   -16.5330   -40.0350 N.ar         1 NAD402   0.0000
    22 C4A         29.0010   -16.9670   -38.9630 C.ar         1 NAD402   0.0000
    23 O3          36.0170   -12.4540   -36.5590 O.3          1 NAD402   0.0000
    24 PN          36.9330   -11.8350   -37.7660 P.3          1 NAD402   0.0000
    25 O1N         37.9430   -10.9360   -37.1860 O.co2        1 NAD402   0.0000
    26 O2N         36.0450   -11.3260   -38.8300 O.co2        1 NAD402  -1.0000
    27 O5D         37.6920   -13.1880   -38.2310 O.3          1 NAD402   0.0000
    28 C5D         36.9770   -14.2020   -38.9430 C.3          1 NAD402   0.0000
    29 C4D         37.9680   -15.3010   -39.3040 C.3          1 NAD402   0.0000
    30 O4D         38.9590   -14.8650   -40.2820 O.3          1 NAD402   0.0000
    31 C3D         38.7690   -15.7670   -38.0720 C.3          1 NAD402   0.0000
    32 O3D         38.7810   -17.1880   -38.0410 O.3          1 NAD402   0.0000
    33 C2D         40.1650   -15.2610   -38.3440 C.3          1 NAD402   0.0000
    34 O2D         41.1480   -16.0860   -37.6970 O.3          1 NAD402   0.0000
    35 C1D         40.2180   -15.4280   -39.8570 C.3          1 NAD402   0.0000
    36 N1N         41.2650   -14.6480   -40.5490 N.ar         1 NAD402   1.0000
    37 C2N         42.0110   -15.2140   -41.6110 C.ar         1 NAD402   0.0000
    38 C3N         42.9810   -14.4690   -42.2830 C.ar         1 NAD402   0.0000
    39 C7N         43.7450   -14.9950   -43.3280 C.2          1 NAD402   0.0000
    40 O7N         45.0400   -14.5760   -43.4060 O.2          1 NAD402   0.0000
    41 N7N         43.1330   -15.8150   -44.2000 N.am         1 NAD402   0.0000
    42 C4N         43.1920   -13.1500   -41.8970 C.ar         1 NAD402   0.0000
    43 C5N         42.4610   -12.5770   -40.8600 C.ar         1 NAD402   0.0000
    44 C6N         41.5040   -13.3240   -40.1910 C.ar         1 NAD402   0.0000
    45 H5B1        33.3367   -14.0430   -36.9466 H            1 NAD402   0.0000
    46 H5B2        33.9620   -13.6711   -38.4086 H            1 NAD402   0.0000
    47 H4B         31.8673   -12.6986   -39.0762 H            1 NAD402   0.0000
    48 H3B         31.2715   -12.5499   -36.4175 H            1 NAD402   0.0000
    49 H5          29.4538   -12.3519   -38.5933 H            1 NAD402   0.0000
    50 H2B         30.5880   -14.7264   -36.2459 H            1 NAD402   0.0000
    51 H7          28.1889   -14.0041   -37.4532 H            1 NAD402   0.0000
    52 H1B         29.5853   -14.4628   -38.9476 H            1 NAD402   0.0000
    53 H8A         30.8975   -17.0178   -36.4925 H            1 NAD402   0.0000
    54 H6A1        27.4782   -21.0226   -39.1428 H            1 NAD402   0.0000
    55 H6A2        28.5952   -20.5759   -37.8967 H            1 NAD402   0.0000
    56 H2A         26.9741   -17.1086   -41.5217 H            1 NAD402   0.0000
    57 H5D1        36.5778   -13.8167   -39.7750 H            1 NAD402   0.0000
    58 H5D2        36.2502   -14.5749   -38.3662 H            1 NAD402   0.0000
    59 H4D         37.4654   -16.0806   -39.6775 H            1 NAD402   0.0000
    60 H3D         38.3977   -15.3842   -37.2261 H            1 NAD402   0.0000
    61 H17         39.2989   -17.4997   -37.2444 H            1 NAD402   0.0000
    62 H2D         40.2630   -14.3016   -38.0795 H            1 NAD402   0.0000
    63 H19         41.6775   -15.5320   -37.0546 H            1 NAD402   0.0000
    64 H1D         40.2750   -16.3952   -40.1047 H            1 NAD402   0.0000
    65 H2N         41.8404   -16.1609   -41.8834 H            1 NAD402   0.0000
    66 H7N1        43.6480   -16.2103   -44.9606 H            1 NAD402   0.0000
    67 H7N2        42.1627   -16.0296   -44.0881 H            1 NAD402   0.0000
    68 H4N         43.8811   -12.6033   -42.3727 H            1 NAD402   0.0000
    69 H5N         42.6263   -11.6263   -40.5977 H            1 NAD402   0.0000
    70 H6N         40.9816   -12.9090   -39.4461 H            1 NAD402   0.0000
@<TRIPOS>BOND
     1    1    2      ar
     2    1    3      ar
     3    1    4       1
     4    1   23       1
     5    4    5       1
     6    5    6       1
     7    6    7       1
     8    6    8       1
     9    7   12       1
    10    8    9       1
    11    8   10       1
    12   10   11       1
    13   10   12       1
    14   12   13       1
    15   13   14       1
    16   13   22       1
    17   14   15       2
    18   15   16       1
    19   16   17      ar
    20   16   22      ar
    21   17   18       1
    22   17   19      ar
    23   19   20      ar
    24   20   21      ar
    25   21   22      ar
    26   23   24       1
    27   24   25      ar
    28   24   26      ar
    29   24   27       1
    30   27   28       1
    31   28   29       1
    32   29   30       1
    33   29   31       1
    34   30   35       1
    35   31   32       1
    36   31   33       1
    37   33   34       1
    38   33   35       1
    39   35   36       1
    40   36   37      ar
    41   36   44      ar
    42   37   38      ar
    43   38   39       1
    44   38   42      ar
    45   39   40       2
    46   39   41      am
    47   42   43      ar
    48   43   44      ar
    49   44   70       1
    50    5   45       1
    51    5   46       1
    52    6   47       1
    53    8   48       1
    54    9   49       1
    55   10   50       1
    56   11   51       1
    57   12   52       1
    58   14   53       1
    59   18   54       1
    60   18   55       1
    61   20   56       1
    62   43   69       1
    63   28   57       1
    64   28   58       1
    65   29   59       1
    66   31   60       1
    67   32   61       1
    68   33   62       1
    69   34   63       1
    70   35   64       1
    71   37   65       1
    72   41   66       1
    73   41   67       1
    74   42   68       1
@<TRIPOS>SUBSTRUCTURE
     1 NAD402      1 GROUP             4 C     NAD     0 **** NAD C 402
