@<TRIPOS>MOLECULE
4oe4_NAD_2_ligand
   39    41     1     0     0
SMALL
NO_CHARGES


@<TRIPOS>ATOM
     1 PA           5.5310    23.1140   131.3900 P.3          1 NAD1000   0.0000
     2 O1A          6.0950    22.7330   129.9880 O.co2        1 NAD1000   0.0000
     3 O2A          5.7770    22.2440   132.5300 O.co2        1 NAD1000  -1.0000
     4 O5B          4.0610    23.2580   131.5470 O.3          1 NAD1000   0.0000
     5 C5B          3.3860    24.1710   130.7130 C.3          1 NAD1000   0.0000
     6 C4B          2.0090    23.6740   130.3200 C.3          1 NAD1000   0.0000
     7 O4B          2.0810    22.5630   129.4530 O.3          1 NAD1000   0.0000
     8 C3B          1.1750    23.3080   131.5020 C.3          1 NAD1000   0.0000
     9 O3B         -0.0940    23.8110   131.3620 O.3          1 NAD1000   0.0000
    10 C2B          1.2220    21.8290   131.4930 C.3          1 NAD1000   0.0000
    11 O2B          0.1500    21.1880   132.0910 O.3          1 NAD1000   0.0000
    12 C1B          1.3170    21.5440   130.0500 C.3          1 NAD1000   0.0000
    13 N9A          2.0230    20.3160   129.8480 N.pl3        1 NAD1000   0.0000
    14 C8A          2.9950    19.7790   130.6720 C.2          1 NAD1000   0.0000
    15 N7A          3.4400    18.6460   130.1200 N.2          1 NAD1000   0.0000
    16 C5A          2.7850    18.4190   128.9200 C.ar         1 NAD1000   0.0000
    17 C6A          2.8380    17.4340   127.9550 C.ar         1 NAD1000   0.0000
    18 N6A          3.7390    16.3300   128.1000 N.pl3        1 NAD1000   0.0000
    19 N1A          2.0460    17.5110   126.8820 N.ar         1 NAD1000   0.0000
    20 C2A          1.1770    18.5410   126.7020 C.ar         1 NAD1000   0.0000
    21 N3A          1.0900    19.5250   127.6290 N.ar         1 NAD1000   0.0000
    22 C4A          1.8700    19.4860   128.7250 C.ar         1 NAD1000   0.0000
    23 O3           6.0610    24.3770   131.9450 O.3          1 NAD1000   0.0000
    24 PN           5.7170    25.0330   133.3450 P.3          1 NAD1000   0.0000
    25 O1N          6.3860    24.2490   134.4350 O.co2        1 NAD1000   0.0000
    26 O2N          4.2440    25.1130   133.6190 O.co2        1 NAD1000  -1.0000
    27 O5D          6.3820    26.4630   133.2830 O.co2        1 NAD1000  -1.0000
    28 H5B1         3.9270    24.3110   129.8837 H            1 NAD1000   0.0000
    29 H5B2         3.2888    25.0399   131.1983 H            1 NAD1000   0.0000
    30 H4B          1.5435    24.4132   129.8333 H            1 NAD1000   0.0000
    31 H3B          1.5933    23.6597   132.3395 H            1 NAD1000   0.0000
    32 H5          -0.0513    24.8073   131.2879 H            1 NAD1000   0.0000
    33 H2B          2.0663    21.5299   131.9377 H            1 NAD1000   0.0000
    34 H7           0.2782    20.1980   132.0316 H            1 NAD1000   0.0000
    35 H1B          0.4066    21.4990   129.6388 H            1 NAD1000   0.0000
    36 H8A          3.3116    20.1721   131.5353 H            1 NAD1000   0.0000
    37 H6A1         3.7745    15.6182   127.3986 H            1 NAD1000   0.0000
    38 H6A2         4.3325    16.2711   128.9027 H            1 NAD1000   0.0000
    39 H2A          0.6016    18.5722   125.8847 H            1 NAD1000   0.0000
@<TRIPOS>BOND
     1    1    2      ar
     2    1    3      ar
     3    1    4       1
     4    1   23       1
     5    4    5       1
     6    5    6       1
     7    6    7       1
     8    6    8       1
     9    7   12       1
    10    8    9       1
    11    8   10       1
    12   10   11       1
    13   10   12       1
    14   12   13       1
    15   13   14       1
    16   13   22       1
    17   14   15       2
    18   15   16       1
    19   16   17      ar
    20   16   22      ar
    21   17   18       1
    22   17   19      ar
    23   19   20      ar
    24   20   21      ar
    25   21   22      ar
    26   23   24       1
    27   24   25      ar
    28   24   26      ar
    29   24   27      ar
    30   20   39       1
    31    5   28       1
    32    5   29       1
    33    6   30       1
    34    8   31       1
    35    9   32       1
    36   10   33       1
    37   11   34       1
    38   12   35       1
    39   14   36       1
    40   18   37       1
    41   18   38       1
@<TRIPOS>SUBSTRUCTURE
     1 NAD1000     1 GROUP             4 B     NAD     0 **** NAD B1000
