@<TRIPOS>MOLECULE
4la1_FAD_1_ligand
   82    87     1     0     0
SMALL
NO_CHARGES


@<TRIPOS>ATOM
     1 PA          -8.0320    -4.6000     6.8410 P.3          1 FAD600   0.0000
     2 O1A         -8.9850    -5.6210     7.3830 O.co2        1 FAD600   0.0000
     3 O2A         -6.6450    -5.2360     6.6630 O.co2        1 FAD600  -1.0000
     4 O5B         -8.6390    -4.0380     5.4820 O.3          1 FAD600   0.0000
     5 C5B         -8.0630    -3.0090     4.7730 C.3          1 FAD600   0.0000
     6 C4B         -8.4410    -3.2180     3.3080 C.3          1 FAD600   0.0000
     7 O4B         -8.1300    -2.0980     2.4670 O.3          1 FAD600   0.0000
     8 C3B         -7.6800    -4.3720     2.7140 C.3          1 FAD600   0.0000
     9 O3B         -8.6180    -5.2410     2.0790 O.3          1 FAD600   0.0000
    10 C2B         -6.7720    -3.7910     1.7460 C.3          1 FAD600   0.0000
    11 O2B         -6.5290    -4.7160     0.6570 O.3          1 FAD600   0.0000
    12 C1B         -7.4870    -2.6010     1.2900 C.3          1 FAD600   0.0000
    13 N9A         -6.6260    -1.5950     0.7360 N.pl3        1 FAD600   0.0000
    14 C8A         -5.3400    -1.3720     1.0310 C.2          1 FAD600   0.0000
    15 N7A         -4.8810    -0.3220     0.3160 N.2          1 FAD600   0.0000
    16 C5A         -5.9030     0.1510    -0.4610 C.ar         1 FAD600   0.0000
    17 C6A         -6.0810     1.1980    -1.4150 C.ar         1 FAD600   0.0000
    18 N6A         -5.0090     2.0580    -1.7410 N.pl3        1 FAD600   0.0000
    19 N1A         -7.2680     1.3650    -1.9990 N.ar         1 FAD600   0.0000
    20 C2A         -8.3100     0.5800    -1.7180 C.ar         1 FAD600   0.0000
    21 N3A         -8.2010    -0.4060    -0.8420 N.ar         1 FAD600   0.0000
    22 C4A         -7.0280    -0.6560    -0.1990 C.ar         1 FAD600   0.0000
    23 N1          -8.1000    -9.5680    15.2280 N.2          1 FAD600   0.0000
    24 C2          -8.9570    -9.9600    16.1700 C.2          1 FAD600   0.0000
    25 O2          -9.7280    -8.9630    16.8810 O.2          1 FAD600   0.0000
    26 N3          -9.1330   -11.2430    16.4900 N.pl3        1 FAD600   0.0000
    27 C4          -8.4300   -12.2160    15.8510 C.2          1 FAD600   0.0000
    28 O4          -8.6260   -13.5680    16.1960 O.2          1 FAD600   0.0000
    29 C4X         -7.5000   -11.8580    14.8260 C.2          1 FAD600   0.0000
    30 N5          -6.7590   -12.8160    14.1460 N.2          1 FAD600   0.0000
    31 C5X         -5.8560   -12.4560    13.1530 C.ar         1 FAD600   0.0000
    32 C6          -5.1010   -13.4320    12.4530 C.ar         1 FAD600   0.0000
    33 C7          -4.2040   -13.0380    11.4490 C.ar         1 FAD600   0.0000
    34 C7M         -3.3990   -14.0700    10.6890 C.3          1 FAD600   0.0000
    35 C8          -4.0550   -11.6530    11.1400 C.ar         1 FAD600   0.0000
    36 C8M         -3.0680   -11.2050    10.0410 C.3          1 FAD600   0.0000
    37 C9          -4.7960   -10.6860    11.8330 C.ar         1 FAD600   0.0000
    38 C9A         -5.7030   -11.0860    12.8450 C.ar         1 FAD600   0.0000
    39 N10         -6.4420   -10.1330    13.5270 N.pl3        1 FAD600   0.0000
    40 C10         -7.3500   -10.4880    14.5200 C.2          1 FAD600   0.0000
    41 C1'         -6.2440    -8.7300    13.1920 C.3          1 FAD600   0.0000
    42 C2'         -7.2360    -8.2030    12.1360 C.2          1 FAD600   0.0000
    43 O2'         -8.0440    -9.0030    11.5650 O.2          1 FAD600   0.0000
    44 C3'         -7.1750    -6.7080    11.7920 C.3          1 FAD600   0.0000
    45 O3'         -7.0990    -5.9510    12.9560 O.3          1 FAD600   0.0000
    46 C4'         -8.3880    -6.2140    11.0030 C.3          1 FAD600   0.0000
    47 O4'         -8.5170    -6.8800     9.8020 O.3          1 FAD600   0.0000
    48 C5'         -8.0950    -4.7320    10.7050 C.3          1 FAD600   0.0000
    49 O5'         -9.1860    -4.2310     9.9740 O.3          1 FAD600   0.0000
    50 P           -8.9030    -2.9850     9.0180 P.3          1 FAD600   0.0000
    51 O1P        -10.2910    -2.5770     8.4350 O.co2        1 FAD600   0.0000
    52 O2P         -8.2090    -1.8660     9.7380 O.co2        1 FAD600  -1.0000
    53 O3P         -7.8460    -3.4010     7.8930 O.3          1 FAD600   0.0000
    54 H5B1        -7.0689    -3.0320     4.8788 H            1 FAD600   0.0000
    55 H5B2        -8.4124    -2.1298     5.0968 H            1 FAD600   0.0000
    56 H4B         -9.4209    -3.4084     3.2482 H            1 FAD600   0.0000
    57 H3B         -7.1722    -4.8608     3.4234 H            1 FAD600   0.0000
    58 H5          -9.1022    -4.7412     1.3609 H            1 FAD600   0.0000
    59 H2B         -5.9109    -3.5343     2.1850 H            1 FAD600   0.0000
    60 H7          -6.8218    -4.3010    -0.2044 H            1 FAD600   0.0000
    61 H1B         -8.1773    -2.8616     0.6151 H            1 FAD600   0.0000
    62 H8A         -4.7995    -1.9033     1.6834 H            1 FAD600   0.0000
    63 H6A1        -5.1405     2.7894    -2.4101 H            1 FAD600   0.0000
    64 H6A2        -4.1186     1.9354    -1.3027 H            1 FAD600   0.0000
    65 H2A         -9.1849     0.7389    -2.1755 H            1 FAD600   0.0000
    66 H13         -9.7866   -11.4911    17.2050 H            1 FAD600   0.0000
    67 H14         -5.2083   -14.4011    12.6753 H            1 FAD600   0.0000
    68 H7M1        -2.8175   -13.6107    10.0174 H            1 FAD600   0.0000
    69 H7M2        -2.8275   -14.5841    11.3286 H            1 FAD600   0.0000
    70 H7M3        -4.0201   -14.6970    10.2188 H            1 FAD600   0.0000
    71 H8M1        -3.0915   -10.2087     9.9578 H            1 FAD600   0.0000
    72 H8M2        -2.1432   -11.4974    10.2842 H            1 FAD600   0.0000
    73 H8M3        -3.3299   -11.6186     9.1690 H            1 FAD600   0.0000
    74 H21         -4.6848    -9.7167    11.6137 H            1 FAD600   0.0000
    75 H1'1        -5.3156    -8.6172    12.8380 H            1 FAD600   0.0000
    76 H1'2        -6.3512    -8.1876    14.0253 H            1 FAD600   0.0000
    77 H3'         -6.3523    -6.5399    11.2489 H            1 FAD600   0.0000
    78 H25         -6.2552    -5.4143    12.9501 H            1 FAD600   0.0000
    79 H4'         -9.2222    -6.3051    11.5470 H            1 FAD600   0.0000
    80 H27         -8.4672    -6.2232     9.0496 H            1 FAD600   0.0000
    81 H5'1        -7.2558    -4.6501    10.1673 H            1 FAD600   0.0000
    82 H5'2        -7.9937    -4.2241    11.5604 H            1 FAD600   0.0000
@<TRIPOS>BOND
     1    1    2      ar
     2    1    3      ar
     3    1    4       1
     4    1   53       1
     5    4    5       1
     6    5    6       1
     7    6    7       1
     8    6    8       1
     9    7   12       1
    10    8    9       1
    11    8   10       1
    12   10   11       1
    13   10   12       1
    14   12   13       1
    15   13   14       1
    16   13   22       1
    17   14   15       2
    18   15   16       1
    19   16   17      ar
    20   16   22      ar
    21   17   18       1
    22   17   19      ar
    23   19   20      ar
    24   20   21      ar
    25   21   22      ar
    26   23   24       1
    27   23   40       2
    28   24   25       2
    29   24   26       1
    30   26   27       1
    31   27   28       2
    32   27   29       1
    33   29   30       2
    34   29   40       1
    35   30   31       1
    36   31   32      ar
    37   31   38      ar
    38   32   33      ar
    39   33   34       1
    40   33   35      ar
    41   35   36       1
    42   35   37      ar
    43   37   38      ar
    44   38   39       1
    45   39   40       1
    46   39   41       1
    47   41   42       1
    48   42   43       2
    49   42   44       1
    50   44   45       1
    51   44   46       1
    52   46   47       1
    53   46   48       1
    54   48   49       1
    55   49   50       1
    56   50   51      ar
    57   50   52      ar
    58   50   53       1
    59   48   82       1
    60    5   54       1
    61    5   55       1
    62    6   56       1
    63    8   57       1
    64    9   58       1
    65   10   59       1
    66   11   60       1
    67   12   61       1
    68   14   62       1
    69   18   63       1
    70   18   64       1
    71   20   65       1
    72   26   66       1
    73   32   67       1
    74   34   68       1
    75   34   69       1
    76   34   70       1
    77   36   71       1
    78   36   72       1
    79   36   73       1
    80   37   74       1
    81   41   75       1
    82   41   76       1
    83   44   77       1
    84   45   78       1
    85   46   79       1
    86   47   80       1
    87   48   81       1
@<TRIPOS>SUBSTRUCTURE
     1 FAD600      1 GROUP             4 A     FAD     0 **** FAD A 600
