@<TRIPOS>MOLECULE
./coach420/1yfr/ligand.pdb
 31 31 0 0 0
SMALL
GASTEIGER

@<TRIPOS>ATOM
      1 MG        132.9430   17.8540   43.9090 Mg    1502  MG1502      0.0000
      2  O1G      130.6610   12.3300   43.7290 O.3   1500  ATP1500     0.0000
      3  O2G      130.2160   12.7510   41.2590 O.3   1500  ATP1500     0.0000
      4  O3G      128.6260   13.6360   43.0610 O.3   1500  ATP1500     0.0000
      5  PB       132.4150   14.9160   42.1510 P.3   1500  ATP1500     0.0000
      6  O1B      133.2520   15.7230   43.1030 O.3   1500  ATP1500     0.0000
      7  O2B      132.9830   13.7160   41.4620 O.2   1500  ATP1500    -0.5000
      8  O3B      131.0200   14.5440   42.8750 O.3   1500  ATP1500    -0.5000
      9  PA       132.5110   17.3040   40.5210 P.3   1500  ATP1500     0.0000
     10  O1A      132.1670   18.2170   41.6300 O.3   1500  ATP1500     0.0000
     11  O2A      133.9150   17.2160   40.0600 O.2   1500  ATP1500     0.0000
     12  O3A      131.9830   15.8690   40.9560 O.3   1500  ATP1500     0.0000
     13  O5'      131.5880   17.5790   39.2530 O.3   1500  ATP1500     0.0000
     14  C5'      130.5980   18.6030   39.2730 C.3   1500  ATP1500     0.0000
     15  C4'      129.2230   17.9990   39.3470 C.3   1500  ATP1500     0.0000
     16  O4'      129.0260   17.1870   38.1710 O.3   1500  ATP1500     0.0000
     17  C3'      128.9870   17.0530   40.4870 C.3   1500  ATP1500     0.0000
     18  O3'      128.5730   17.7610   41.6380 O.3   1500  ATP1500     0.0000
     19  C2'      127.8240   16.2380   39.9580 C.3   1500  ATP1500     0.0000
     20  O2'      126.6490   16.9700   40.1430 O.3   1500  ATP1500     0.0000
     21  C1'      128.1610   16.1180   38.4670 C.3   1500  ATP1500     0.0000
     22  N9       128.7980   14.8620   38.0080 N.ar  1500  ATP1500     0.0000
     23  C8       130.1190   14.4920   38.0830 C.ar  1500  ATP1500     0.0000
     24  N7       130.3650   13.3080   37.5640 N.ar  1500  ATP1500     0.0000
     25  C5       129.1310   12.8690   37.1130 C.ar  1500  ATP1500     0.0000
     26  C6       128.7000   11.6690   36.4290 C.ar  1500  ATP1500     0.0000
     27  N6       129.4960   10.6440   36.1220 N.pl3 1500  ATP1500     0.0000
     28  N1       127.3940   11.5670   36.0960 N.ar  1500  ATP1500     0.0000
     29  C2       126.5650   12.5690   36.4420 C.ar  1500  ATP1500     0.0000
     30  N3       126.8360   13.7230   37.0930 N.ar  1500  ATP1500     0.0000
     31  C4       128.1440   13.8170   37.3850 C.ar  1500  ATP1500     0.0000
@<TRIPOS>BOND
     1     1    10    1
     2     1     6    1
     3     5    12    1
     4     5     7    2
     5     5     8    1
     6     5     6    1
     7     9    13    1
     8     9    11    2
     9     9    12    1
    10     9    10    1
    11    13    14    1
    12    14    15    1
    13    15    16    1
    14    15    17    1
    15    16    21    1
    16    17    19    1
    17    17    18    1
    18    19    21    1
    19    19    20    1
    20    21    22    1
    21    22    31   ar
    22    22    23   ar
    23    23    24   ar
    24    24    25   ar
    25    25    26   ar
    26    25    31   ar
    27    26    28   ar
    28    26    27    1
    29    28    29   ar
    30    29    30   ar
    31    30    31   ar
