@<TRIPOS>MOLECULE
2xsz_ATP_4_ligand
   43    45     1     0     0
SMALL
NO_CHARGES


@<TRIPOS>ATOM
     1 PG          30.3750    80.1320    24.8630 P.3          1 ATP501   0.0000
     2 O1G         30.8660    78.6950    24.4680 O.co2        1 ATP501   0.0000
     3 O2G         31.4330    81.2090    24.4130 O.co2        1 ATP501  -1.0000
     4 O3G         30.2040    80.2370    26.4230 O.co2        1 ATP501  -1.0000
     5 PB          27.5080    80.7930    24.7890 P.3          1 ATP501   0.0000
     6 O1B         26.4330    80.2450    23.8590 O.co2        1 ATP501   0.0000
     7 O2B         27.3140    80.2620    26.2010 O.co2        1 ATP501  -1.0000
     8 O3B         28.9050    80.3600    24.1970 O.3          1 ATP501   0.0000
     9 PA          27.6090    83.3860    25.9030 P.3          1 ATP501   0.0000
    10 O1A         29.0100    83.4070    26.5070 O.co2        1 ATP501   0.0000
    11 O2A         26.5370    83.0750    26.9600 O.co2        1 ATP501  -1.0000
    12 O3A         27.4440    82.3530    24.7570 O.3          1 ATP501   0.0000
    13 O5'         27.3070    84.8180    25.3040 O.3          1 ATP501   0.0000
    14 C5'         28.3540    85.5270    24.6920 C.3          1 ATP501   0.0000
    15 C4'         28.4030    86.9570    25.2160 C.3          1 ATP501   0.0000
    16 O4'         27.2920    87.6680    24.6900 O.3          1 ATP501   0.0000
    17 C3'         28.3840    87.1880    26.7380 C.3          1 ATP501   0.0000
    18 O3'         29.0470    88.3960    27.1600 O.3          1 ATP501   0.0000
    19 C2'         26.8770    87.1520    27.0030 C.3          1 ATP501   0.0000
    20 O2'         26.5220    87.7720    28.2500 O.3          1 ATP501   0.0000
    21 C1'         26.3360    87.8850    25.7760 C.3          1 ATP501   0.0000
    22 N9          25.0410    87.4240    25.3380 N.pl3        1 ATP501   0.0000
    23 C8          24.7880    86.3020    24.6030 C.2          1 ATP501   0.0000
    24 N7          23.5140    86.1530    24.3580 N.2          1 ATP501   0.0000
    25 C5          22.8860    87.2300    24.9360 C.ar         1 ATP501   0.0000
    26 C6          21.5260    87.6370    24.9980 C.ar         1 ATP501   0.0000
    27 N6          20.4780    86.9500    24.4310 N.pl3        1 ATP501   0.0000
    28 N1          21.2160    88.7800    25.6610 N.ar         1 ATP501   0.0000
    29 C2          22.2400    89.5040    26.2350 C.ar         1 ATP501   0.0000
    30 N3          23.5760    89.2050    26.2410 N.ar         1 ATP501   0.0000
    31 C4          23.8300    88.0520    25.5660 C.ar         1 ATP501   0.0000
    32 H5'1        28.2073    85.5431    23.7029 H            1 ATP501   0.0000
    33 H5'2        29.2217    85.0723    24.8929 H            1 ATP501   0.0000
    34 H4'         29.2329    87.3830    24.8557 H            1 ATP501   0.0000
    35 H3'         28.8127    86.4064    27.1910 H            1 ATP501   0.0000
    36 H5          28.9929    88.4757    28.1554 H            1 ATP501   0.0000
    37 H2'         26.5574    86.2045    26.9961 H            1 ATP501   0.0000
    38 H7          26.5367    87.0874    28.9788 H            1 ATP501   0.0000
    39 H1'         26.2845    88.8635    25.9758 H            1 ATP501   0.0000
    40 H9          25.4952    85.6685    24.2890 H            1 ATP501   0.0000
    41 H10         19.5454    87.3004    24.5173 H            1 ATP501   0.0000
    42 H11         20.6487    86.1001    23.9324 H            1 ATP501   0.0000
    43 H12         21.9752    90.3475    26.7023 H            1 ATP501   0.0000
@<TRIPOS>BOND
     1    1    2      ar
     2    1    3      ar
     3    1    4      ar
     4    1    8       1
     5    5    6      ar
     6    5    7      ar
     7    5    8       1
     8    5   12       1
     9    9   10      ar
    10    9   11      ar
    11    9   12       1
    12    9   13       1
    13   13   14       1
    14   14   15       1
    15   15   16       1
    16   15   17       1
    17   16   21       1
    18   17   18       1
    19   17   19       1
    20   19   20       1
    21   19   21       1
    22   21   22       1
    23   22   23       1
    24   22   31       1
    25   23   24       2
    26   24   25       1
    27   25   26      ar
    28   25   31      ar
    29   26   27       1
    30   26   28      ar
    31   28   29      ar
    32   29   30      ar
    33   30   31      ar
    34   29   43       1
    35   27   42       1
    36   27   41       1
    37   23   40       1
    38   14   32       1
    39   14   33       1
    40   15   34       1
    41   17   35       1
    42   18   36       1
    43   19   37       1
    44   20   38       1
    45   21   39       1
@<TRIPOS>SUBSTRUCTURE
     1 ATP501      1 GROUP             4 D     ATP     0 **** ATP D 501
