@<TRIPOS>MOLECULE
2q8i_RDC_1_ligand
   42    44     1     0     0
SMALL
NO_CHARGES


@<TRIPOS>ATOM
     1 C1         -48.8340    21.5200    66.0020 C.2          1 RDC408   0.0000
     2 C2         -49.9830    21.3490    66.9130 C.ar         1 RDC408   0.0000
     3 C3         -50.7330    22.5800    67.2160 C.ar         1 RDC408   0.0000
     4 C4         -51.8400    22.5770    68.0540 C.ar         1 RDC408   0.0000
     5 C5         -52.2250    21.3570    68.5790 C.ar         1 RDC408   0.0000
     6 C6         -51.5200    20.0860    68.2780 C.ar         1 RDC408   0.0000
     7 C7         -50.3600    20.0250    67.4620 C.ar         1 RDC408   0.0000
     8 C8         -49.7260    18.6810    67.1680 C.3          1 RDC408   0.0000
     9 C9         -49.2710    17.8950    68.3810 C.2          1 RDC408   0.0000
    10 C10        -48.5860    18.5240    69.5770 C.2          1 RDC408   0.0000
    11 C11        -47.6430    19.4450    69.3540 C.2          1 RDC408   0.0000
    12 C12        -46.9190    20.1300    70.4400 C.2          1 RDC408   0.0000
    13 C13        -46.2860    21.3070    70.2840 C.2          1 RDC408   0.0000
    14 C14        -46.2740    22.0750    68.9770 C.3          1 RDC408   0.0000
    15 C15        -45.1850    21.6570    67.9610 C.3          1 RDC408   0.0000
    16 C16        -45.4880    22.2520    66.5600 C.3          1 RDC408   0.0000
    17 C17        -46.4270    21.3820    65.7310 C.3          1 RDC408   0.0000
    18 C18        -45.7410    20.0360    65.4190 C.3          1 RDC408   0.0000
    19 O1         -47.5910    21.0780    66.5160 O.3          1 RDC408   0.0000
    20 O2         -48.9640    22.0170    64.9020 O.2          1 RDC408   0.0000
    21 O3         -50.2380    23.6910    66.6010 O.3          1 RDC408   0.0000
    22 O4         -53.2750    21.2510    69.4170 O.3          1 RDC408   0.0000
    23 CL1        -52.0140    18.5270    68.9210 Cl           1 RDC408   0.0000
    24 O5         -49.4560    16.7000    68.3340 O.2          1 RDC408   0.0000
    25 O6         -45.0380    22.7570    68.8420 O.3          1 RDC408   0.0000
    26 H1         -52.3361    23.4184    68.2681 H            1 RDC408   0.0000
    27 H2         -48.9285    18.8374    66.5853 H            1 RDC408   0.0000
    28 H3         -50.3956    18.1258    66.6746 H            1 RDC408   0.0000
    29 H4         -48.8327    18.2573    70.5087 H            1 RDC408   0.0000
    30 H5         -47.4188    19.6797    68.4082 H            1 RDC408   0.0000
    31 H6         -46.8971    19.6967    71.3410 H            1 RDC408   0.0000
    32 H7         -45.8001    21.6937    71.0678 H            1 RDC408   0.0000
    33 H8         -47.1146    22.5069    68.6502 H            1 RDC408   0.0000
    34 H9         -44.6539    20.8172    68.0733 H            1 RDC408   0.0000
    35 H10        -44.6257    22.3523    66.0636 H            1 RDC408   0.0000
    36 H11        -45.9099    23.1506    66.6803 H            1 RDC408   0.0000
    37 H12        -46.6851    21.8496    64.8856 H            1 RDC408   0.0000
    38 H13        -46.3571    19.4660    64.8754 H            1 RDC408   0.0000
    39 H14        -44.8997    20.2020    64.9046 H            1 RDC408   0.0000
    40 H15        -45.5215    19.5675    66.2748 H            1 RDC408   0.0000
    41 H16        -50.6770    24.5783    66.7424 H            1 RDC408   0.0000
    42 H17        -53.5339    20.3574    69.7836 H            1 RDC408   0.0000
@<TRIPOS>BOND
     1    1    2       1
     2    1   19       1
     3    1   20       2
     4    2    3      ar
     5    2    7      ar
     6    3    4      ar
     7    3   21       1
     8    4    5      ar
     9    5    6      ar
    10    5   22       1
    11    6    7      ar
    12    6   23       1
    13    7    8       1
    14    8    9       1
    15    9   10       1
    16    9   24       2
    17   10   11       2
    18   11   12       1
    19   12   13       2
    20   13   14       1
    21   14   15       1
    22   14   25       1
    23   15   16       1
    24   15   25       1
    25   16   17       1
    26   17   18       1
    27   17   19       1
    28    4   26       1
    29    8   27       1
    30    8   28       1
    31   10   29       1
    32   11   30       1
    33   12   31       1
    34   13   32       1
    35   14   33       1
    36   15   34       1
    37   16   35       1
    38   16   36       1
    39   17   37       1
    40   18   38       1
    41   18   39       1
    42   18   40       1
    43   21   41       1
    44   22   42       1
@<TRIPOS>SUBSTRUCTURE
     1 RDC408      1 GROUP             4 A     RDC     0 **** RDC A 408
