@<TRIPOS>MOLECULE
4h2w_5GP_1_ligand
   36    38     1     0     0
SMALL
NO_CHARGES


@<TRIPOS>ATOM
     1 P           -3.3920    -4.6440    18.5260 P.3          1 5GP403   0.0000
     2 O1P         -2.0220    -5.0560    18.9980 O.co2        1 5GP403   0.0000
     3 O2P         -4.3800    -5.7330    18.0880 O.co2        1 5GP403  -1.0000
     4 O3P         -3.3410    -3.5930    17.4140 O.co2        1 5GP403  -1.0000
     5 O5'         -4.0700    -3.9050    19.7620 O.3          1 5GP403   0.0000
     6 C5'         -5.3030    -3.2250    19.6090 C.3          1 5GP403   0.0000
     7 C4'         -5.3700    -2.0220    20.5100 C.3          1 5GP403   0.0000
     8 O4'         -5.2780    -2.4490    21.8890 O.3          1 5GP403   0.0000
     9 C3'         -4.2390    -1.0280    20.3490 C.3          1 5GP403   0.0000
    10 O3'         -4.4700    -0.1240    19.2750 O.3          1 5GP403   0.0000
    11 C2'         -4.1870    -0.3460    21.7110 C.3          1 5GP403   0.0000
    12 O2'         -5.1640     0.6760    21.7640 O.3          1 5GP403   0.0000
    13 C1'         -4.6110    -1.4790    22.6590 C.3          1 5GP403   0.0000
    14 N9          -3.4650    -2.1430    23.3150 N.pl3        1 5GP403   0.0000
    15 C8          -2.6190    -3.0530    22.7340 C.2          1 5GP403   0.0000
    16 N7          -1.6710    -3.4710    23.5370 N.2          1 5GP403   0.0000
    17 C5          -1.9050    -2.7880    24.7230 C.2          1 5GP403   0.0000
    18 C6          -1.1930    -2.7850    25.9640 C.2          1 5GP403   0.0000
    19 O6          -0.2030    -3.4610    26.2380 O.2          1 5GP403   0.0000
    20 N1          -1.7540    -1.9260    26.8980 N.2          1 5GP403   0.0000
    21 C2          -2.8830    -1.1850    26.6950 C.2          1 5GP403   0.0000
    22 N2          -3.3570    -0.4900    27.7420 N.pl3        1 5GP403   0.0000
    23 N3          -3.5520    -1.1710    25.5410 N.pl3        1 5GP403   0.0000
    24 C4          -3.0110    -1.9790    24.6060 C.2          1 5GP403   0.0000
    25 H5'1        -6.0508    -3.8479    19.8388 H            1 5GP403   0.0000
    26 H5'2        -5.3969    -2.9277    18.6588 H            1 5GP403   0.0000
    27 H4'         -6.2420    -1.5535    20.3685 H            1 5GP403   0.0000
    28 H3'         -3.3833    -1.5206    20.1908 H            1 5GP403   0.0000
    29 H5          -3.7360    -0.2119    18.6016 H            1 5GP403   0.0000
    30 H2'         -3.2724    -0.0019    21.9234 H            1 5GP403   0.0000
    31 H7          -5.1300     1.1236    22.6576 H            1 5GP403   0.0000
    32 H1'         -5.2323    -1.1185    23.3548 H            1 5GP403   0.0000
    33 H9          -2.7160    -3.3671    21.7896 H            1 5GP403   0.0000
    34 H10         -4.1814     0.0669    27.6405 H            1 5GP403   0.0000
    35 H11         -2.8856    -0.5294    28.6230 H            1 5GP403   0.0000
    36 H12         -4.3706    -0.6182    25.3850 H            1 5GP403   0.0000
@<TRIPOS>BOND
     1    1    2      ar
     2    1    3      ar
     3    1    4      ar
     4    1    5       1
     5    5    6       1
     6    6    7       1
     7    7    8       1
     8    7    9       1
     9    8   13       1
    10    9   10       1
    11    9   11       1
    12   11   12       1
    13   11   13       1
    14   13   14       1
    15   14   15       1
    16   14   24       1
    17   15   16       2
    18   16   17       1
    19   17   18       1
    20   17   24       2
    21   18   19       2
    22   18   20       1
    23   20   21       2
    24   21   22       1
    25   21   23       1
    26   23   24       1
    27   22   35       1
    28   22   34       1
    29    6   25       1
    30    6   26       1
    31    7   27       1
    32    9   28       1
    33   10   29       1
    34   11   30       1
    35   12   31       1
    36   13   32       1
    37   15   33       1
    38   23   36       1
@<TRIPOS>SUBSTRUCTURE
     1 5GP403      1 GROUP             4 A     5GP     0 **** 5GP A 403
