@<TRIPOS>MOLECULE
1crb_RTL_1_ligand
   51    51     1     0     0
SMALL
NO_CHARGES


@<TRIPOS>ATOM
     1 C1          16.5190     7.6910     0.3220 C.3          1 RTL200   0.0000
     2 C2          16.5320     8.9960     1.1620 C.3          1 RTL200   0.0000
     3 C3          17.8550     9.6980     1.2380 C.3          1 RTL200   0.0000
     4 C4          18.9220     8.8120     1.8250 C.3          1 RTL200   0.0000
     5 C5          18.9290     7.3930     1.2080 C.2          1 RTL200   0.0000
     6 C6          17.8840     6.8890     0.5220 C.2          1 RTL200   0.0000
     7 C7          17.9700     5.5410    -0.0440 C.2          1 RTL200   0.0000
     8 C8          17.2570     4.9530    -1.0150 C.2          1 RTL200   0.0000
     9 C9          17.4330     3.5840    -1.4620 C.2          1 RTL200   0.0000
    10 C10         16.6200     3.1530    -2.4330 C.2          1 RTL200   0.0000
    11 C11         16.5880     1.8250    -3.0210 C.2          1 RTL200   0.0000
    12 C12         15.6530     1.6510    -3.9620 C.2          1 RTL200   0.0000
    13 C13         15.3730     0.4290    -4.6810 C.2          1 RTL200   0.0000
    14 C14         14.3790     0.4410    -5.5870 C.2          1 RTL200   0.0000
    15 C15         13.9120    -0.6660    -6.4080 C.3          1 RTL200   0.0000
    16 O1          12.6170    -1.0470    -5.9520 O.3          1 RTL200   0.0000
    17 C16         16.3370     8.0900    -1.1610 C.3          1 RTL200   0.0000
    18 C17         15.3120     6.8540     0.8050 C.3          1 RTL200   0.0000
    19 C18         20.2500     6.6440     1.4780 C.3          1 RTL200   0.0000
    20 C19         18.5040     2.6560    -0.8350 C.3          1 RTL200   0.0000
    21 C20         16.1810    -0.8410    -4.3880 C.3          1 RTL200   0.0000
    22 H1          16.2506     8.7662     2.0937 H            1 RTL200   0.0000
    23 H2          15.8697     9.6283     0.7601 H            1 RTL200   0.0000
    24 H3          17.7578    10.5117     1.8111 H            1 RTL200   0.0000
    25 H4          18.1308     9.9705     0.3162 H            1 RTL200   0.0000
    26 H5          18.7649     8.7317     2.8093 H            1 RTL200   0.0000
    27 H6          19.8135     9.2352     1.6632 H            1 RTL200   0.0000
    28 H7          18.6784     4.9631     0.3613 H            1 RTL200   0.0000
    29 H8          16.5505     5.4991    -1.4652 H            1 RTL200   0.0000
    30 H9          15.9638     3.8163    -2.7928 H            1 RTL200   0.0000
    31 H10         17.2159     1.0976    -2.7440 H            1 RTL200   0.0000
    32 H11         15.0916     2.4463    -4.1908 H            1 RTL200   0.0000
    33 H12         13.9053     1.3129    -5.7110 H            1 RTL200   0.0000
    34 H13         14.5411    -1.4387    -6.3231 H            1 RTL200   0.0000
    35 H14         13.8627    -0.3798    -7.3649 H            1 RTL200   0.0000
    36 H15         12.4797    -2.0238    -6.1164 H            1 RTL200   0.0000
    37 H16         16.3248     7.2668    -1.7286 H            1 RTL200   0.0000
    38 H17         15.4738     8.5829    -1.2700 H            1 RTL200   0.0000
    39 H18         17.0948     8.6783    -1.4433 H            1 RTL200   0.0000
    40 H19         15.2688     6.0007     0.2854 H            1 RTL200   0.0000
    41 H20         15.4178     6.6470     1.7776 H            1 RTL200   0.0000
    42 H21         14.4689     7.3730     0.6644 H            1 RTL200   0.0000
    43 H22         20.2090     5.7354     1.0624 H            1 RTL200   0.0000
    44 H23         21.0113     7.1576     1.0822 H            1 RTL200   0.0000
    45 H24         20.3862     6.5534     2.4645 H            1 RTL200   0.0000
    46 H25         18.4675     1.7593    -1.2761 H            1 RTL200   0.0000
    47 H26         19.4108     3.0562    -0.9678 H            1 RTL200   0.0000
    48 H27         18.3248     2.5537     0.1435 H            1 RTL200   0.0000
    49 H28         15.8561    -1.5849    -4.9719 H            1 RTL200   0.0000
    50 H29         17.1488    -0.6704    -4.5730 H            1 RTL200   0.0000
    51 H30         16.0650    -1.0958    -3.4280 H            1 RTL200   0.0000
@<TRIPOS>BOND
     1    1    2       1
     2    1    6       1
     3    1   17       1
     4    1   18       1
     5    2    3       1
     6    3    4       1
     7    4    5       1
     8    5    6       2
     9    5   19       1
    10    6    7       1
    11    7    8       2
    12    8    9       1
    13    9   10       2
    14    9   20       1
    15   10   11       1
    16   11   12       2
    17   12   13       1
    18   13   14       2
    19   13   21       1
    20   14   15       1
    21   15   16       1
    22    2   22       1
    23    2   23       1
    24    3   24       1
    25    3   25       1
    26    4   26       1
    27    4   27       1
    28    7   28       1
    29    8   29       1
    30   10   30       1
    31   11   31       1
    32   12   32       1
    33   14   33       1
    34   15   34       1
    35   15   35       1
    36   16   36       1
    37   17   37       1
    38   17   38       1
    39   17   39       1
    40   18   40       1
    41   18   41       1
    42   18   42       1
    43   19   43       1
    44   19   44       1
    45   19   45       1
    46   20   46       1
    47   20   47       1
    48   20   48       1
    49   21   49       1
    50   21   50       1
    51   21   51       1
@<TRIPOS>SUBSTRUCTURE
     1 RTL200      1 GROUP             4 A     RTL     0 **** RTL A 200
