@<TRIPOS>MOLECULE
3jsk_AHZ_8_ligand
   57    60     1     0     0
SMALL
NO_CHARGES


@<TRIPOS>ATOM
     1 O2'        137.8660   -44.6940   -50.3930 O.3          1 AHZ500   0.0000
     2 C2'        138.1580   -46.0000   -49.8810 C.3          1 AHZ500   0.0000
     3 C3'        139.5840   -46.0800   -49.3470 C.3          1 AHZ500   0.0000
     4 O3'        140.2450   -44.8360   -49.5380 O.3          1 AHZ500   0.0000
     5 C1'        138.1270   -47.0610   -50.9800 C.3          1 AHZ500   0.0000
     6 N9         136.8260   -47.7900   -51.0460 N.pl3        1 AHZ500   0.0000
     7 C8         136.2040   -48.4200   -50.0360 C.2          1 AHZ500   0.0000
     8 N7         135.0740   -48.9650   -50.4780 N.2          1 AHZ500   0.0000
     9 C5         134.9690   -48.6870   -51.7690 C.ar         1 AHZ500   0.0000
    10 C6         134.0200   -48.9900   -52.7600 C.ar         1 AHZ500   0.0000
    11 N1         134.2200   -48.5360   -54.0330 N.ar         1 AHZ500   0.0000
    12 C2         135.3050   -47.8100   -54.3510 C.ar         1 AHZ500   0.0000
    13 N6         132.9430   -49.7100   -52.4610 N.pl3        1 AHZ500   0.0000
    14 C4         136.0860   -47.9350   -52.1340 C.ar         1 AHZ500   0.0000
    15 N3         136.2270   -47.5110   -53.4210 N.ar         1 AHZ500   0.0000
    16 O4'        139.2030   -47.9870   -50.6750 O.3          1 AHZ500   0.0000
    17 C4'        140.2830   -47.1980   -50.1320 C.3          1 AHZ500   0.0000
    18 C5'        141.1500   -48.0850   -49.1900 C.3          1 AHZ500   0.0000
    19 O5'        141.6040   -47.3370   -48.0540 O.3          1 AHZ500   0.0000
    20 PA         142.5240   -47.9310   -46.8690 P.3          1 AHZ500   0.0000
    21 O2A        143.7820   -47.1410   -46.8180 O.co2        1 AHZ500   0.0000
    22 O1A        141.6770   -47.9120   -45.6490 O.co2        1 AHZ500  -1.0000
    23 O3A        142.8300   -49.4950   -47.2190 O.3          1 AHZ500   0.0000
    24 PB         144.3470   -50.0830   -47.4490 P.3          1 AHZ500   0.0000
    25 O1B        144.9210   -49.4940   -48.6790 O.co2        1 AHZ500   0.0000
    26 O2B        144.2170   -51.5670   -47.3910 O.co2        1 AHZ500  -1.0000
    27 O3B        145.1990   -49.5570   -46.1830 O.3          1 AHZ500   0.0000
    28 C7T        144.8870   -49.9770   -44.8580 C.3          1 AHZ500   0.0000
    29 C6T        145.4970   -49.0070   -43.8430 C.3          1 AHZ500   0.0000
    30 C5T        144.9440   -49.3600   -42.4740 C.2          1 AHZ500   0.0000
    31 S1T        145.6790   -50.4610   -41.4480 S.3          1 AHZ500   0.0000
    32 C2T        144.5300   -50.3290   -40.2230 C.2          1 AHZ500   0.0000
    33 C1R        144.5580   -51.1140   -38.8920 C.2          1 AHZ500   0.0000
    34 O1R        144.1890   -50.5320   -37.8380 O.co2        1 AHZ500   0.0000
    35 O2R        144.9480   -52.3080   -38.9400 O.co2        1 AHZ500  -1.0000
    36 N3T        143.5900   -49.4420   -40.5910 N.2          1 AHZ500   0.0000
    37 C4T        143.7980   -48.9010   -41.8150 C.2          1 AHZ500   0.0000
    38 C1M        142.8380   -47.8650   -42.4280 C.3          1 AHZ500   0.0000
    39 H2'        138.4972   -44.4794   -51.1384 H            1 AHZ500   0.0000
    40 H2         137.5086   -46.2371   -49.1585 H            1 AHZ500   0.0000
    41 H3'        139.5684   -46.3089   -48.3737 H            1 AHZ500   0.0000
    42 H4         140.2707   -44.6186   -50.5137 H            1 AHZ500   0.0000
    43 H1'        138.3064   -46.6265   -51.8626 H            1 AHZ500   0.0000
    44 H6         136.5393   -48.4715   -49.0953 H            1 AHZ500   0.0000
    45 H7         135.4274   -47.4888   -55.2901 H            1 AHZ500   0.0000
    46 H8         132.2709   -49.9226   -53.1703 H            1 AHZ500   0.0000
    47 H9         132.8050   -50.0389   -51.5268 H            1 AHZ500   0.0000
    48 H4'        140.8423   -46.8147   -50.8670 H            1 AHZ500   0.0000
    49 H5'1       141.9429   -48.4229   -49.6972 H            1 AHZ500   0.0000
    50 H5'2       140.6018   -48.8593   -48.8739 H            1 AHZ500   0.0000
    51 H7T1       145.2582   -50.8929   -44.7050 H            1 AHZ500   0.0000
    52 H7T2       143.8939   -49.9962   -44.7420 H            1 AHZ500   0.0000
    53 H6T1       145.2484   -48.0674   -44.0784 H            1 AHZ500   0.0000
    54 H6T2       146.4929   -49.0979   -43.8415 H            1 AHZ500   0.0000
    55 H1M1       142.0911   -47.6833   -41.7884 H            1 AHZ500   0.0000
    56 H1M2       143.3351   -47.0165   -42.6097 H            1 AHZ500   0.0000
    57 H1M3       142.4644   -48.2223   -43.2840 H            1 AHZ500   0.0000
@<TRIPOS>BOND
     1    1    2       1
     2    2    3       1
     3    2    5       1
     4    3    4       1
     5    3   17       1
     6    5    6       1
     7    5   16       1
     8    6    7       1
     9    6   14       1
    10    7    8       2
    11    8    9       1
    12    9   10      ar
    13    9   14      ar
    14   10   11      ar
    15   10   13       1
    16   11   12      ar
    17   12   15      ar
    18   14   15      ar
    19   16   17       1
    20   17   18       1
    21   18   19       1
    22   19   20       1
    23   20   21      ar
    24   20   22      ar
    25   20   23       1
    26   23   24       1
    27   24   25      ar
    28   24   26      ar
    29   24   27       1
    30   27   28       1
    31   28   29       1
    32   29   30       1
    33   30   31       1
    34   30   37       2
    35   31   32       1
    36   32   33       1
    37   32   36       2
    38   33   34      ar
    39   33   35      ar
    40   36   37       1
    41   37   38       1
    42    1   39       1
    43    2   40       1
    44    3   41       1
    45    4   42       1
    46    5   43       1
    47    7   44       1
    48   12   45       1
    49   13   46       1
    50   13   47       1
    51   17   48       1
    52   18   49       1
    53   18   50       1
    54   38   57       1
    55   38   56       1
    56   28   51       1
    57   28   52       1
    58   29   53       1
    59   29   54       1
    60   38   55       1
@<TRIPOS>SUBSTRUCTURE
     1 AHZ500      1 GROUP             4 H     AHZ     0 **** AHZ H 500
