@<TRIPOS>MOLECULE
4xb2_NDP_1_ligand
   73    77     1     0     0
SMALL
NO_CHARGES


@<TRIPOS>ATOM
     1 PA           9.9580    -9.8040   -24.8650 P.3          1 NDP1001   0.0000
     2 O1A         10.9140   -10.8810   -25.3030 O.co2        1 NDP1001   0.0000
     3 O2A         10.0330    -8.3690   -25.3160 O.co2        1 NDP1001  -1.0000
     4 O5B          9.9260    -9.7760   -23.2560 O.3          1 NDP1001   0.0000
     5 C5B         10.0580   -10.9840   -22.5120 C.3          1 NDP1001   0.0000
     6 C4B         10.5130   -10.6080   -21.1150 C.3          1 NDP1001   0.0000
     7 O4B         10.6610   -11.7770   -20.3020 O.3          1 NDP1001   0.0000
     8 C3B         11.8830    -9.9270   -21.1250 C.3          1 NDP1001   0.0000
     9 O3B         11.8430    -8.8230   -20.2150 O.3          1 NDP1001   0.0000
    10 C2B         12.8040   -11.0580   -20.6990 C.3          1 NDP1001   0.0000
    11 O2B         14.0830   -10.6760   -20.2080 O.3          1 NDP1001   0.0000
    12 C1B         11.9340   -11.6980   -19.6610 C.3          1 NDP1001   0.0000
    13 N9A         12.2390   -13.0780   -19.2760 N.pl3        1 NDP1001   0.0000
    14 C8A         12.2410   -14.1950   -20.0280 C.2          1 NDP1001   0.0000
    15 N7A         12.5390   -15.2580   -19.2520 N.2          1 NDP1001   0.0000
    16 C5A         12.7030   -14.7760   -18.0040 C.ar         1 NDP1001   0.0000
    17 C6A         13.0270   -15.3410   -16.6850 C.ar         1 NDP1001   0.0000
    18 N6A         13.2130   -16.6750   -16.5840 N.pl3        1 NDP1001   0.0000
    19 N1A         13.1240   -14.5100   -15.6280 N.ar         1 NDP1001   0.0000
    20 C2A         12.9130   -13.1670   -15.7320 C.ar         1 NDP1001   0.0000
    21 N3A         12.6050   -12.5660   -16.9080 N.ar         1 NDP1001   0.0000
    22 C4A         12.5020   -13.3400   -18.0280 C.ar         1 NDP1001   0.0000
    23 O3           8.5180   -10.4430   -25.2990 O.3          1 NDP1001   0.0000
    24 PN           7.0950    -9.6680   -25.2100 P.3          1 NDP1001   0.0000
    25 O1N          7.0760    -8.6110   -24.0980 O.co2        1 NDP1001   0.0000
    26 O2N          6.8370    -9.2180   -26.6290 O.co2        1 NDP1001  -1.0000
    27 O5D          6.2060   -10.9370   -24.8110 O.3          1 NDP1001   0.0000
    28 C5D          5.8730   -11.1710   -23.4360 C.3          1 NDP1001   0.0000
    29 C4D          4.9300   -12.3720   -23.2780 C.3          1 NDP1001   0.0000
    30 O4D          3.6500   -12.0330   -23.8080 O.3          1 NDP1001   0.0000
    31 C3D          5.3950   -13.6340   -24.0410 C.3          1 NDP1001   0.0000
    32 O3D          5.0830   -14.8280   -23.3150 O.3          1 NDP1001   0.0000
    33 C2D          4.6340   -13.5810   -25.3460 C.3          1 NDP1001   0.0000
    34 O2D          4.4150   -14.8930   -25.8670 O.3          1 NDP1001   0.0000
    35 C1D          3.3350   -12.9300   -24.8820 C.3          1 NDP1001   0.0000
    36 N1N          2.5710   -12.2660   -25.9470 N.ar         1 NDP1001   1.0000
    37 C2N          3.1390   -11.3120   -26.6760 C.ar         1 NDP1001   0.0000
    38 C3N          2.4560   -10.6940   -27.6890 C.ar         1 NDP1001   0.0000
    39 C7N          3.1030    -9.6000   -28.4910 C.2          1 NDP1001   0.0000
    40 O7N          2.5440    -9.2510   -29.5130 O.2          1 NDP1001   0.0000
    41 N7N          4.2320    -8.9760   -28.0970 N.am         1 NDP1001   0.0000
    42 C4N          1.0240   -11.0720   -27.9920 C.ar         1 NDP1001   0.0000
    43 C5N          0.5030   -12.1290   -27.1220 C.ar         1 NDP1001   0.0000
    44 C6N          1.2980   -12.6880   -26.1470 C.ar         1 NDP1001   0.0000
    45 P2B         15.3170   -10.5720   -21.2600 P.3          1 NDP1001   0.0000
    46 O1X         14.9500    -9.4780   -22.2490 O.co2        1 NDP1001   0.0000
    47 O2X         16.3110   -10.1640   -20.2010 O.co2        1 NDP1001  -1.0000
    48 O3X         15.4030   -11.9500   -21.9380 O.co2        1 NDP1001  -1.0000
    49 H5B1        10.7358   -11.5791   -22.9438 H            1 NDP1001   0.0000
    50 H5B2         9.1780   -11.4571   -22.4692 H            1 NDP1001   0.0000
    51 H4B          9.8401    -9.9962   -20.6991 H            1 NDP1001   0.0000
    52 H3B         12.1133    -9.6145   -22.0466 H            1 NDP1001   0.0000
    53 H5          12.5304    -8.9547   -19.5008 H            1 NDP1001   0.0000
    54 H2B         12.9219   -11.6910   -21.4641 H            1 NDP1001   0.0000
    55 H1B         11.8778   -11.1163   -18.8495 H            1 NDP1001   0.0000
    56 H8A         12.0511   -14.2312   -21.0091 H            1 NDP1001   0.0000
    57 H6A1        13.4342   -17.0834   -15.6984 H            1 NDP1001   0.0000
    58 H6A2        13.1295   -17.2543   -17.3948 H            1 NDP1001   0.0000
    59 H2A         12.9883   -12.6034   -14.9094 H            1 NDP1001   0.0000
    60 H5D1         5.4251   -10.3563   -23.0676 H            1 NDP1001   0.0000
    61 H5D2         6.7136   -11.3492   -22.9245 H            1 NDP1001   0.0000
    62 H4D          4.8362   -12.5909   -22.3068 H            1 NDP1001   0.0000
    63 H3D          6.3785   -13.5861   -24.2155 H            1 NDP1001   0.0000
    64 H16          5.5416   -14.8074   -22.4266 H            1 NDP1001   0.0000
    65 H2D          5.1058   -13.0044   -26.0131 H            1 NDP1001   0.0000
    66 H18          5.2954   -15.3390   -26.0280 H            1 NDP1001   0.0000
    67 H1D          2.7561   -13.6537   -24.5063 H            1 NDP1001   0.0000
    68 H2N          4.0816   -11.0405   -26.4817 H            1 NDP1001   0.0000
    69 H7N1         4.6273    -8.2529   -28.6634 H            1 NDP1001   0.0000
    70 H7N2         4.6737    -9.2365   -27.2385 H            1 NDP1001   0.0000
    71 H4N          0.4847   -10.6421   -28.7161 H            1 NDP1001   0.0000
    72 H5N         -0.4380   -12.4472   -27.2373 H            1 NDP1001   0.0000
    73 H6N          0.9291   -13.4203   -25.5745 H            1 NDP1001   0.0000
@<TRIPOS>BOND
     1    1    2      ar
     2    1    3      ar
     3    1    4       1
     4    1   23       1
     5    4    5       1
     6    5    6       1
     7    6    7       1
     8    6    8       1
     9    7   12       1
    10    8    9       1
    11    8   10       1
    12   10   11       1
    13   10   12       1
    14   11   45       1
    15   12   13       1
    16   13   14       1
    17   13   22       1
    18   14   15       2
    19   15   16       1
    20   16   17      ar
    21   16   22      ar
    22   17   18       1
    23   17   19      ar
    24   19   20      ar
    25   20   21      ar
    26   21   22      ar
    27   23   24       1
    28   24   25      ar
    29   24   26      ar
    30   24   27       1
    31   27   28       1
    32   28   29       1
    33   29   30       1
    34   29   31       1
    35   30   35       1
    36   31   32       1
    37   31   33       1
    38   33   34       1
    39   33   35       1
    40   35   36       1
    41   36   37      ar
    42   36   44      ar
    43   37   38      ar
    44   38   39       1
    45   38   42      ar
    46   39   40       2
    47   39   41      am
    48   42   43      ar
    49   43   44      ar
    50   45   46      ar
    51   45   47      ar
    52   45   48      ar
    53   43   72       1
    54    5   49       1
    55    5   50       1
    56    6   51       1
    57    8   52       1
    58    9   53       1
    59   10   54       1
    60   12   55       1
    61   14   56       1
    62   18   57       1
    63   18   58       1
    64   20   59       1
    65   44   73       1
    66   28   60       1
    67   28   61       1
    68   29   62       1
    69   31   63       1
    70   32   64       1
    71   33   65       1
    72   34   66       1
    73   35   67       1
    74   37   68       1
    75   41   69       1
    76   41   70       1
    77   42   71       1
@<TRIPOS>SUBSTRUCTURE
     1 NDP1001     1 GROUP             4 A     NDP     0 **** NDP A1001
