@<TRIPOS>MOLECULE
4ks7_X4Z_1_ligand
   66    70     1     0     0
SMALL
NO_CHARGES


@<TRIPOS>ATOM
     1 C1          30.2270    39.0780    27.8380 C.2          1 X4Z702   0.0000
     2 C2          30.4980    40.2870    28.5460 C.2          1 X4Z702   0.0000
     3 C3          28.8090    39.2950    27.5210 C.2          1 X4Z702   0.0000
     4 C4          31.4460    38.2010    27.7290 C.3          1 X4Z702   0.0000
     5 C5          31.9060    40.3470    29.0140 C.3          1 X4Z702   0.0000
     6 N6          29.4270    41.1270    28.6230 N.pl3        1 X4Z702   0.0000
     7 N7          27.9680    38.5520    26.7290 N.pl3        1 X4Z702   0.0000
     8 N8          28.3730    40.4910    27.9350 N.2          1 X4Z702   0.0000
     9 N9          32.4680    39.1150    28.3590 N.am         1 X4Z702   0.0000
    10 C10         32.5670    41.6710    28.6290 C.3          1 X4Z702   0.0000
    11 C11         31.9450    40.1340    30.5400 C.3          1 X4Z702   0.0000
    12 C12         28.1460    37.2380    26.4700 C.ar         1 X4Z702   0.0000
    13 C13         33.7780    38.8400    28.3290 C.2          1 X4Z702   0.0000
    14 C14         27.1950    36.4720    25.6660 C.ar         1 X4Z702   0.0000
    15 N15         29.0270    36.5310    27.2240 N.ar         1 X4Z702   0.0000
    16 N16         34.1910    37.7470    27.6830 N.am         1 X4Z702   0.0000
    17 O17         34.5890    39.5000    28.9910 O.2          1 X4Z702   0.0000
    18 C18         27.4350    35.0500    25.6400 C.ar         1 X4Z702   0.0000
    19 S19         25.9760    37.0570    24.6600 S.3          1 X4Z702   0.0000
    20 C20         29.1720    35.1960    27.1810 C.ar         1 X4Z702   0.0000
    21 C21         35.6330    37.4510    27.6110 C.3          1 X4Z702   0.0000
    22 N22         28.4030    34.4560    26.3820 N.ar         1 X4Z702   0.0000
    23 C23         26.5020    34.4180    24.7490 C.2          1 X4Z702   0.0000
    24 C24         25.6560    35.3880    24.1760 C.2          1 X4Z702   0.0000
    25 C25         30.2410    34.4970    27.9720 C.3          1 X4Z702   0.0000
    26 C26         36.2460    36.8340    28.8360 C.ar         1 X4Z702   0.0000
    27 C27         36.0470    36.6610    26.3360 C.3          1 X4Z702   0.0000
    28 C28         37.6120    37.0270    29.1100 C.ar         1 X4Z702   0.0000
    29 C29         35.4970    36.0870    29.7140 C.ar         1 X4Z702   0.0000
    30 N30         36.1850    37.5520    25.1470 N.4          1 X4Z702   1.0000
    31 C31         38.2300    36.4980    30.2350 C.ar         1 X4Z702   0.0000
    32 C32         36.1030    35.5410    30.8600 C.ar         1 X4Z702   0.0000
    33 C33         37.4690    35.7450    31.1200 C.ar         1 X4Z702   0.0000
    34 C34         36.4900    36.6840    23.9770 C.3          1 X4Z702   0.0000
    35 C35         35.0480    38.4450    24.7890 C.3          1 X4Z702   0.0000
    36 H1          31.6702    37.9905    26.7775 H            1 X4Z702   0.0000
    37 H2          31.3401    37.3496    28.2427 H            1 X4Z702   0.0000
    38 H3          27.1785    39.0100    26.3205 H            1 X4Z702   0.0000
    39 H4          33.5115    41.6800    28.9575 H            1 X4Z702   0.0000
    40 H5          32.5592    41.7705    27.6340 H            1 X4Z702   0.0000
    41 H6          32.0626    42.4284    29.0437 H            1 X4Z702   0.0000
    42 H7          32.8922    40.1739    30.8580 H            1 X4Z702   0.0000
    43 H8          31.4117    40.8502    30.9903 H            1 X4Z702   0.0000
    44 H9          31.5563    39.2397    30.7618 H            1 X4Z702   0.0000
    45 H10         33.5281    37.1348    27.2520 H            1 X4Z702   0.0000
    46 H11         36.0768    38.3425    27.5196 H            1 X4Z702   0.0000
    47 H12         26.4594    33.4363    24.5633 H            1 X4Z702   0.0000
    48 H13         24.9239    35.1481    23.5384 H            1 X4Z702   0.0000
    49 H14         30.1867    33.5120    27.8081 H            1 X4Z702   0.0000
    50 H15         31.1391    34.8331    27.6883 H            1 X4Z702   0.0000
    51 H16         30.1088    34.6806    28.9461 H            1 X4Z702   0.0000
    52 H17         35.3496    35.9708    26.1431 H            1 X4Z702   0.0000
    53 H18         36.9236    36.2107    26.5056 H            1 X4Z702   0.0000
    54 H19         38.1592    37.5661    28.4697 H            1 X4Z702   0.0000
    55 H20         34.5247    35.9323    29.5386 H            1 X4Z702   0.0000
    56 H21         39.2028    36.6558    30.4047 H            1 X4Z702   0.0000
    57 H22         35.5546    35.0006    31.4981 H            1 X4Z702   0.0000
    58 H23         37.8903    35.3507    31.9367 H            1 X4Z702   0.0000
    59 H24         36.5895    37.2503    23.1588 H            1 X4Z702   0.0000
    60 H25         37.3414    36.1867    24.1438 H            1 X4Z702   0.0000
    61 H26         35.7440    36.0318    23.8423 H            1 X4Z702   0.0000
    62 H27         35.2855    38.9777    23.9767 H            1 X4Z702   0.0000
    63 H28         34.2367    37.8920    24.5994 H            1 X4Z702   0.0000
    64 H29         34.8584    39.0648    25.5505 H            1 X4Z702   0.0000
    65 H30         36.9833    38.1340    25.3021 H            1 X4Z702   0.0000
    66 H31         29.3951    42.0173    29.0772 H            1 X4Z702   0.0000
@<TRIPOS>BOND
     1    1    2       2
     2    1    3       1
     3    1    4       1
     4    2    5       1
     5    2    6       1
     6    3    7       1
     7    3    8       2
     8    4    9       1
     9    5    9       1
    10    5   10       1
    11    5   11       1
    12    6    8       1
    13    7   12       1
    14    9   13      am
    15   12   14      ar
    16   12   15      ar
    17   13   16      am
    18   13   17       2
    19   14   18      ar
    20   14   19       1
    21   15   20      ar
    22   16   21       1
    23   18   22      ar
    24   18   23       1
    25   19   24       1
    26   20   22      ar
    27   20   25       1
    28   21   26       1
    29   21   27       1
    30   23   24       2
    31   26   28      ar
    32   26   29      ar
    33   27   30       1
    34   28   31      ar
    35   29   32      ar
    36   30   34       1
    37   30   35       1
    38   31   33      ar
    39   32   33      ar
    40    4   36       1
    41    4   37       1
    42   35   64       1
    43    7   38       1
    44   10   39       1
    45   10   40       1
    46   10   41       1
    47   11   42       1
    48   11   43       1
    49   11   44       1
    50   16   45       1
    51   21   46       1
    52   23   47       1
    53   24   48       1
    54   25   49       1
    55   25   50       1
    56   25   51       1
    57   27   52       1
    58   27   53       1
    59   28   54       1
    60   29   55       1
    61   31   56       1
    62   32   57       1
    63   33   58       1
    64   34   59       1
    65   34   60       1
    66   34   61       1
    67   35   62       1
    68   35   63       1
    69    6   66       1
    70   30   65       1
@<TRIPOS>SUBSTRUCTURE
     1 X4Z702      1 GROUP             4 A     X4Z     0 **** X4Z A 702
