@<TRIPOS>MOLECULE
5k8b_PDG_3_ligand
   41    41     1     0     0
SMALL
NO_CHARGES


@<TRIPOS>ATOM
     1 N1         -25.0390   -32.4060    17.5010 N.ar         1 PDG501   1.0000
     2 C2         -24.0970   -32.8910    18.3020 C.ar         1 PDG501   0.0000
     3 C2A        -23.3130   -31.9970    19.1830 C.3          1 PDG501   0.0000
     4 C3         -23.8630   -34.3370    18.3240 C.ar         1 PDG501   0.0000
     5 O3         -22.9460   -34.8600    19.1560 O.3          1 PDG501  -1.0000
     6 C4         -24.6300   -35.2130    17.4290 C.ar         1 PDG501   0.0000
     7 C4A        -24.4300   -36.6870    17.2500 C.3          1 PDG501   0.0000
     8 C5         -25.5970   -34.5610    16.5460 C.ar         1 PDG501   0.0000
     9 C6         -25.7230   -33.1710    16.6310 C.ar         1 PDG501   0.0000
    10 C5A        -26.3820   -35.4170    15.5640 C.3          1 PDG501   0.0000
    11 OP4        -27.0380   -36.5710    16.0820 O.3          1 PDG501   0.0000
    12 P          -27.7160   -37.6120    15.0760 P.3          1 PDG501   0.0000
    13 OP1        -28.0450   -36.9350    13.7720 O.co2        1 PDG501   0.0000
    14 OP2        -28.7390   -38.0960    16.0550 O.co2        1 PDG501  -1.0000
    15 OP3        -26.6540   -38.7060    14.9420 O.co2        1 PDG501  -1.0000
    16 NA         -23.0840   -36.9870    17.6050 N.4          1 PDG501   1.0000
    17 CAA        -22.1400   -37.8000    16.8560 C.3          1 PDG501   0.0000
    18 CBA        -22.3650   -39.2670    16.4820 C.3          1 PDG501   0.0000
    19 CGA        -21.5250   -39.5240    15.2170 C.3          1 PDG501   0.0000
    20 CDA        -22.0180   -40.6550    14.3560 C.2          1 PDG501   0.0000
    21 OE1        -21.6460   -41.8440    14.5580 O.co2        1 PDG501   0.0000
    22 OE2        -22.8230   -40.3000    13.4860 O.co2        1 PDG501  -1.0000
    23 CA         -20.8440   -37.6540    17.6080 C.2          1 PDG501   0.0000
    24 OA         -20.0670   -38.6180    17.7910 O.co2        1 PDG501   0.0000
    25 OXT        -20.6090   -36.4720    17.9900 O.co2        1 PDG501  -1.0000
    26 H2A1       -22.6562   -32.5384    19.7079 H            1 PDG501   0.0000
    27 H2A2       -22.8228   -31.3264    18.6262 H            1 PDG501   0.0000
    28 H2A3       -23.9302   -31.5220    19.8102 H            1 PDG501   0.0000
    29 H4A1       -24.5954   -36.9400    16.2968 H            1 PDG501   0.0000
    30 H4A2       -25.0589   -37.1905    17.8424 H            1 PDG501   0.0000
    31 H6         -26.3601   -32.7181    16.0073 H            1 PDG501   0.0000
    32 H5A1       -25.7445   -35.7254    14.8580 H            1 PDG501   0.0000
    33 H5A2       -27.0814   -34.8344    15.1500 H            1 PDG501   0.0000
    34 HA1        -23.1461   -37.4254    18.5016 H            1 PDG501   0.0000
    35 HAA        -22.0023   -37.3206    15.9893 H            1 PDG501   0.0000
    36 HBA1       -23.3333   -39.4319    16.2942 H            1 PDG501   0.0000
    37 HBA2       -22.0633   -39.8641    17.2253 H            1 PDG501   0.0000
    38 HGA1       -20.5894   -39.7335    15.5012 H            1 PDG501   0.0000
    39 HGA2       -21.5271   -38.6892    14.6664 H            1 PDG501   0.0000
    40 HA2        -22.6384   -36.0968    17.6994 H            1 PDG501   0.0000
    41 H16        -25.2490   -31.4294    17.5466 H            1 PDG501   0.0000
@<TRIPOS>BOND
     1    1    2      ar
     2    1    9      ar
     3    2    3       1
     4    2    4      ar
     5    4    5       1
     6    4    6      ar
     7    6    7       1
     8    6    8      ar
     9    7   16       1
    10    8    9      ar
    11    8   10       1
    12   10   11       1
    13   11   12       1
    14   12   13      ar
    15   12   14      ar
    16   12   15      ar
    17   16   17       1
    18   17   18       1
    19   17   23       1
    20   18   19       1
    21   19   20       1
    22   20   21      ar
    23   20   22      ar
    24   23   24      ar
    25   23   25      ar
    26    3   26       1
    27    3   27       1
    28    3   28       1
    29    1   41       1
    30    7   29       1
    31    7   30       1
    32    9   31       1
    33   10   32       1
    34   10   33       1
    35   19   39       1
    36   16   40       1
    37   16   34       1
    38   17   35       1
    39   18   36       1
    40   18   37       1
    41   19   38       1
@<TRIPOS>SUBSTRUCTURE
     1 PDG501      1 GROUP             4 C     PDG     0 **** PDG C 501
