@<TRIPOS>MOLECULE
1s4o_GDP_2_ligand
   40    42     1     0     0
SMALL
NO_CHARGES


@<TRIPOS>ATOM
     1 PB          41.0790    53.5260    47.2030 P.3          1 GDP801   0.0000
     2 O1B         41.0570    52.0540    47.4210 O.co2        1 GDP801   0.0000
     3 O2B         40.6750    54.3260    48.4220 O.co2        1 GDP801  -1.0000
     4 O3B         40.2950    53.9380    45.9540 O.co2        1 GDP801  -1.0000
     5 O3A         42.6490    53.9060    46.9150 O.3          1 GDP801   0.0000
     6 PA          43.3140    55.2730    46.5980 P.3          1 GDP801   0.0000
     7 O1A         42.4750    56.4410    46.9770 O.co2        1 GDP801   0.0000
     8 O2A         43.7640    55.2730    45.1680 O.co2        1 GDP801  -1.0000
     9 O5'         44.6260    55.1950    47.5350 O.3          1 GDP801   0.0000
    10 C5'         44.5260    55.2080    48.9720 C.3          1 GDP801   0.0000
    11 C4'         45.5080    56.2490    49.4900 C.3          1 GDP801   0.0000
    12 O4'         46.8140    55.8010    49.0380 O.3          1 GDP801   0.0000
    13 C3'         45.2980    57.6820    48.9250 C.3          1 GDP801   0.0000
    14 O3'         45.7710    58.5530    50.0160 O.3          1 GDP801   0.0000
    15 C2'         46.2540    57.7350    47.7530 C.3          1 GDP801   0.0000
    16 O2'         46.6070    59.0380    47.4060 O.3          1 GDP801   0.0000
    17 C1'         47.3820    56.8070    48.2350 C.3          1 GDP801   0.0000
    18 N9          48.0830    56.0790    47.0600 N.pl3        1 GDP801   0.0000
    19 C8          47.5360    55.0920    46.2810 C.2          1 GDP801   0.0000
    20 N7          48.4290    54.6740    45.3780 N.2          1 GDP801   0.0000
    21 C5          49.5730    55.4360    45.6120 C.2          1 GDP801   0.0000
    22 C6          50.8330    55.4200    44.9730 C.2          1 GDP801   0.0000
    23 O6          51.1540    54.6750    44.0380 O.2          1 GDP801   0.0000
    24 N1          51.7490    56.3620    45.5060 N.pl3        1 GDP801   0.0000
    25 C2          51.4280    57.2200    46.5640 C.2          1 GDP801   0.0000
    26 N2          52.3610    58.0970    47.0080 N.pl3        1 GDP801   0.0000
    27 N3          50.2260    57.2190    47.1660 N.2          1 GDP801   0.0000
    28 C4          49.3640    56.3100    46.6430 C.2          1 GDP801   0.0000
    29 H5'1        44.7586    54.3071    49.3385 H            1 GDP801   0.0000
    30 H5'2        43.5955    55.4497    49.2472 H            1 GDP801   0.0000
    31 H4'         45.4837    56.2711    50.4895 H            1 GDP801   0.0000
    32 H3'         44.3499    57.8635    48.6638 H            1 GDP801   0.0000
    33 H5          46.7475    58.7338    49.8986 H            1 GDP801   0.0000
    34 H2'         45.8102    57.3084    46.9649 H            1 GDP801   0.0000
    35 H7          46.7986    59.0816    46.4255 H            1 GDP801   0.0000
    36 H1'         48.0522    57.3286    48.7630 H            1 GDP801   0.0000
    37 H9          46.6058    54.7370    46.3745 H            1 GDP801   0.0000
    38 H10         52.6649    56.4156    45.1083 H            1 GDP801   0.0000
    39 H11         52.1459    58.7162    47.7632 H            1 GDP801   0.0000
    40 H12         53.2645    58.1249    46.5804 H            1 GDP801   0.0000
@<TRIPOS>BOND
     1    1    2      ar
     2    1    3      ar
     3    1    4      ar
     4    1    5       1
     5    5    6       1
     6    6    7      ar
     7    6    8      ar
     8    6    9       1
     9    9   10       1
    10   10   11       1
    11   11   12       1
    12   11   13       1
    13   12   17       1
    14   13   14       1
    15   13   15       1
    16   15   16       1
    17   15   17       1
    18   17   18       1
    19   18   19       1
    20   18   28       1
    21   19   20       2
    22   20   21       1
    23   21   22       1
    24   21   28       2
    25   22   23       2
    26   22   24       1
    27   24   25       1
    28   25   26       1
    29   25   27       2
    30   27   28       1
    31   26   40       1
    32   26   39       1
    33   24   38       1
    34   10   29       1
    35   10   30       1
    36   11   31       1
    37   13   32       1
    38   14   33       1
    39   15   34       1
    40   16   35       1
    41   17   36       1
    42   19   37       1
@<TRIPOS>SUBSTRUCTURE
     1 GDP801      1 GROUP             4 B     GDP     0 **** GDP B 801
