@<TRIPOS>MOLECULE
1me8_RVP_1_ligand
   32    33     1     0     0
SMALL
NO_CHARGES


@<TRIPOS>ATOM
     1 P           67.8060    55.1920    15.0100 P.3          1 RVP602   0.0000
     2 O1P         67.4470    55.1060    13.5660 O.co2        1 RVP602   0.0000
     3 O2P         68.6180    53.9930    15.3860 O.co2        1 RVP602  -1.0000
     4 O3P         68.5890    56.4890    15.3350 O.co2        1 RVP602  -1.0000
     5 O5'         66.5640    55.2600    15.9980 O.3          1 RVP602   0.0000
     6 C5'         65.6010    54.2070    15.9620 C.3          1 RVP602   0.0000
     7 C4'         64.5210    54.4180    16.9850 C.3          1 RVP602   0.0000
     8 O4'         63.7660    55.6050    16.5400 O.3          1 RVP602   0.0000
     9 C3'         63.4370    53.3700    17.1790 C.3          1 RVP602   0.0000
    10 O3'         63.8630    52.2290    17.9140 O.3          1 RVP602   0.0000
    11 C2'         62.3430    54.1620    17.8320 C.3          1 RVP602   0.0000
    12 O2'         62.4820    54.2780    19.2360 O.3          1 RVP602   0.0000
    13 C1'         62.4340    55.4860    17.0670 C.3          1 RVP602   0.0000
    14 N9          61.4750    55.6020    15.9030 N.pl3        1 RVP602   0.0000
    15 C8          60.9890    54.6940    14.9780 C.2          1 RVP602   0.0000
    16 N7          60.1710    55.2310    14.1290 N.2          1 RVP602   0.0000
    17 C5          60.0840    56.5440    14.4680 C.2          1 RVP602   0.0000
    18 C6          59.3290    57.6340    13.8770 C.2          1 RVP602   0.0000
    19 O6          58.5920    57.5670    12.9060 O.2          1 RVP602   0.0000
    20 N1          59.5010    58.9020    14.5320 N.am         1 RVP602   0.0000
    21 N4          60.8830    56.8100    15.5740 N.2          1 RVP602   0.0000
    22 H5'1        66.0609    53.3388    16.1484 H            1 RVP602   0.0000
    23 H5'2        65.1864    54.1760    15.0525 H            1 RVP602   0.0000
    24 H4'         64.9447    54.6149    17.8691 H            1 RVP602   0.0000
    25 H3'         63.1196    53.0695    16.2796 H            1 RVP602   0.0000
    26 H5          64.5772    52.4967    18.5607 H            1 RVP602   0.0000
    27 H2'         61.4645    53.7299    17.6282 H            1 RVP602   0.0000
    28 H7          62.9494    53.4691    19.5927 H            1 RVP602   0.0000
    29 H1'         62.2671    56.2403    17.7019 H            1 RVP602   0.0000
    30 H9          61.2423    53.7267    14.9664 H            1 RVP602   0.0000
    31 H10         59.0187    59.7096    14.1926 H            1 RVP602   0.0000
    32 H11         60.1030    58.9765    15.3270 H            1 RVP602   0.0000
@<TRIPOS>BOND
     1    1    2      ar
     2    1    3      ar
     3    1    4      ar
     4    1    5       1
     5    5    6       1
     6    6    7       1
     7    7    8       1
     8    7    9       1
     9    8   13       1
    10    9   10       1
    11    9   11       1
    12   11   12       1
    13   11   13       1
    14   13   14       1
    15   14   15       1
    16   14   21       1
    17   15   16       2
    18   16   17       1
    19   17   18       1
    20   17   21       2
    21   18   19       2
    22   18   20      am
    23   20   32       1
    24   20   31       1
    25    6   22       1
    26    6   23       1
    27    7   24       1
    28    9   25       1
    29   10   26       1
    30   11   27       1
    31   12   28       1
    32   13   29       1
    33   15   30       1
@<TRIPOS>SUBSTRUCTURE
     1 RVP602      1 GROUP             4 A     RVP     0 **** RVP A 602
