@<TRIPOS>MOLECULE
3a25_SAM_1_ligand
   50    52     1     0     0
SMALL
NO_CHARGES


@<TRIPOS>ATOM
     1 N           -7.4150   -26.9330   -39.8390 N.4          1 SAM279   1.0000
     2 CA          -8.2010   -27.0600   -38.6120 C.3          1 SAM279   0.0000
     3 C           -9.1350   -25.8360   -38.4500 C.2          1 SAM279   0.0000
     4 O           -9.2710   -25.0560   -39.4010 O.co2        1 SAM279   0.0000
     5 OXT         -9.7950   -25.6030   -37.4140 O.co2        1 SAM279  -1.0000
     6 CB          -7.3230   -27.4290   -37.3900 C.3          1 SAM279   0.0000
     7 CG          -5.9210   -28.0130   -37.6620 C.3          1 SAM279   0.0000
     8 SD          -4.8870   -28.2430   -36.1710 S.3          1 SAM279   1.0000
     9 CE          -3.8790   -26.7360   -36.2610 C.3          1 SAM279   0.0000
    10 C5'         -3.6480   -29.5650   -36.4820 C.3          1 SAM279   0.0000
    11 C4'         -2.3580   -29.4060   -35.6290 C.3          1 SAM279   0.0000
    12 O4'         -1.9170   -30.5770   -34.9370 O.3          1 SAM279   0.0000
    13 C3'         -1.1220   -28.9060   -36.3830 C.3          1 SAM279   0.0000
    14 O3'         -0.7370   -27.6780   -35.8140 O.3          1 SAM279   0.0000
    15 C2'          0.0020   -29.8780   -36.0670 C.3          1 SAM279   0.0000
    16 O2'          1.2090   -29.2030   -35.7980 O.3          1 SAM279   0.0000
    17 C1'         -0.4950   -30.5320   -34.7950 C.3          1 SAM279   0.0000
    18 N9           0.0690   -31.8760   -34.5790 N.pl3        1 SAM279   0.0000
    19 C8           0.1810   -32.8820   -35.5060 C.2          1 SAM279   0.0000
    20 N7           0.7130   -33.9660   -34.8920 N.2          1 SAM279   0.0000
    21 C5           0.9280   -33.6730   -33.5870 C.ar         1 SAM279   0.0000
    22 C6           1.4530   -34.4090   -32.5240 C.ar         1 SAM279   0.0000
    23 N6           1.8480   -35.6670   -32.6970 N.pl3        1 SAM279   0.0000
    24 N1           1.5700   -33.8310   -31.2780 N.ar         1 SAM279   0.0000
    25 C2           1.1550   -32.5240   -31.0940 C.ar         1 SAM279   0.0000
    26 N3           0.6420   -31.7970   -32.1540 N.ar         1 SAM279   0.0000
    27 C4           0.5360   -32.3590   -33.3820 C.ar         1 SAM279   0.0000
    28 H1          -6.8155   -27.7276   -39.9346 H            1 SAM279   0.0000
    29 H2          -8.0305   -26.8834   -40.6255 H            1 SAM279   0.0000
    30 HA          -8.8049   -27.8436   -38.7576 H            1 SAM279   0.0000
    31 HB1         -7.8283   -28.1042   -36.8526 H            1 SAM279   0.0000
    32 HB2         -7.1998   -26.5970   -36.8491 H            1 SAM279   0.0000
    33 HG1         -5.4402   -27.3930   -38.2820 H            1 SAM279   0.0000
    34 HG2         -6.0345   -28.9034   -38.1028 H            1 SAM279   0.0000
    35 HE1         -3.2429   -26.7139   -35.4897 H            1 SAM279   0.0000
    36 HE2         -3.3639   -26.7302   -37.1181 H            1 SAM279   0.0000
    37 HE3         -4.4749   -25.9337   -36.2248 H            1 SAM279   0.0000
    38 H5'1        -3.3947   -29.5424   -37.4491 H            1 SAM279   0.0000
    39 H5'2        -4.0646   -30.4483   -36.2671 H            1 SAM279   0.0000
    40 H4'         -2.5615   -28.7211   -34.9294 H            1 SAM279   0.0000
    41 H3'         -1.2871   -28.8292   -37.3663 H            1 SAM279   0.0000
    42 H15         -0.5221   -27.8117   -34.8465 H            1 SAM279   0.0000
    43 H2'          0.1173   -30.5495   -36.7990 H            1 SAM279   0.0000
    44 H17          1.0843   -28.5975   -35.0120 H            1 SAM279   0.0000
    45 H1'         -0.2623   -29.9504   -34.0155 H            1 SAM279   0.0000
    46 H19         -0.0843   -32.8246   -36.4685 H            1 SAM279   0.0000
    47 H20          2.2226   -36.1838   -31.9272 H            1 SAM279   0.0000
    48 H21          1.7705   -36.0961   -33.5969 H            1 SAM279   0.0000
    49 H22          1.2261   -32.1023   -30.1900 H            1 SAM279   0.0000
    50 H23         -6.8616   -26.1012   -39.7958 H            1 SAM279   0.0000
@<TRIPOS>BOND
     1    1    2       1
     2    2    3       1
     3    2    6       1
     4    3    4      ar
     5    3    5      ar
     6    6    7       1
     7    7    8       1
     8    8    9       1
     9    8   10       1
    10   10   11       1
    11   11   12       1
    12   11   13       1
    13   12   17       1
    14   13   14       1
    15   13   15       1
    16   15   16       1
    17   15   17       1
    18   17   18       1
    19   18   19       1
    20   18   27       1
    21   19   20       2
    22   20   21       1
    23   21   22      ar
    24   21   27      ar
    25   22   23       1
    26   22   24      ar
    27   24   25      ar
    28   25   26      ar
    29   26   27      ar
    30    1   28       1
    31    1   29       1
    32    2   30       1
    33    1   50       1
    34    6   31       1
    35    6   32       1
    36    7   33       1
    37    7   34       1
    38    9   35       1
    39    9   36       1
    40    9   37       1
    41   10   38       1
    42   10   39       1
    43   11   40       1
    44   13   41       1
    45   14   42       1
    46   15   43       1
    47   16   44       1
    48   17   45       1
    49   19   46       1
    50   23   47       1
    51   23   48       1
    52   25   49       1
@<TRIPOS>SUBSTRUCTURE
     1 SAM279      1 GROUP             4 A     SAM     0 **** SAM A 279
