@<TRIPOS>MOLECULE
1lm1_FMN_1_ligand
   50    52     1     0     0
SMALL
NO_CHARGES


@<TRIPOS>ATOM
     1 N1         182.1280   224.6800    30.1420 N.2          1 FMN2070   0.0000
     2 C2         182.0120   225.3590    28.9860 C.2          1 FMN2070   0.0000
     3 O2         182.5300   224.8910    27.9860 O.2          1 FMN2070   0.0000
     4 N3         181.3210   226.5510    28.9730 N.pl3        1 FMN2070   0.0000
     5 C4         180.7280   227.0240    30.1360 C.2          1 FMN2070   0.0000
     6 O4         180.3270   228.1890    30.2020 O.2          1 FMN2070   0.0000
     7 C4A        180.8660   226.2880    31.2930 C.2          1 FMN2070   0.0000
     8 N5         180.3160   226.7310    32.4560 N.2          1 FMN2070   0.0000
     9 C5A        180.4780   226.0060    33.6100 C.ar         1 FMN2070   0.0000
    10 C6         179.9370   226.4700    34.7930 C.ar         1 FMN2070   0.0000
    11 C7         180.0820   225.7340    35.9540 C.ar         1 FMN2070   0.0000
    12 C7M        179.6130   226.2190    37.2850 C.3          1 FMN2070   0.0000
    13 C8         180.7870   224.5730    35.9470 C.ar         1 FMN2070   0.0000
    14 C8M        181.3560   224.2250    37.2760 C.3          1 FMN2070   0.0000
    15 C9         181.3530   224.1020    34.7630 C.ar         1 FMN2070   0.0000
    16 C9A        181.1900   224.8220    33.5870 C.ar         1 FMN2070   0.0000
    17 N10        181.7520   224.4010    32.4030 N.pl3        1 FMN2070   0.0000
    18 C10        181.5670   225.1290    31.2770 C.2          1 FMN2070   0.0000
    19 C1'        182.8030   223.3460    32.3970 C.3          1 FMN2070   0.0000
    20 C2'        184.2430   223.8350    32.4430 C.3          1 FMN2070   0.0000
    21 O2'        184.5510   224.6590    31.3550 O.3          1 FMN2070   0.0000
    22 C3'        185.1930   222.6530    32.5180 C.3          1 FMN2070   0.0000
    23 O3'        185.1090   221.9160    31.3330 O.3          1 FMN2070   0.0000
    24 C4'        184.7910   221.6950    33.6460 C.3          1 FMN2070   0.0000
    25 O4'        184.3160   222.3320    34.8120 O.3          1 FMN2070   0.0000
    26 C5'        185.8670   220.7140    34.0520 C.3          1 FMN2070   0.0000
    27 O5'        185.2740   219.8900    34.9860 O.3          1 FMN2070   0.0000
    28 P          185.6550   219.9180    36.5110 P.3          1 FMN2070   0.0000
    29 O1P        185.5350   218.5350    36.9620 O.co2        1 FMN2070   0.0000
    30 O2P        184.7300   220.8440    37.2620 O.co2        1 FMN2070  -1.0000
    31 O3P        187.0740   220.3920    36.7460 O.co2        1 FMN2070  -1.0000
    32 H1         181.2465   227.0760    28.1251 H            1 FMN2070   0.0000
    33 H2         179.4406   227.3380    34.8096 H            1 FMN2070   0.0000
    34 H7M1       179.8177   225.5312    37.9815 H            1 FMN2070   0.0000
    35 H7M2       180.0808   227.0731    37.5123 H            1 FMN2070   0.0000
    36 H7M3       178.6262   226.3777    37.2532 H            1 FMN2070   0.0000
    37 H8M1       181.8613   223.3648    37.2074 H            1 FMN2070   0.0000
    38 H8M2       181.9744   224.9519    37.5745 H            1 FMN2070   0.0000
    39 H8M3       180.6149   224.1242    37.9398 H            1 FMN2070   0.0000
    40 H9         181.8745   223.2487    34.7608 H            1 FMN2070   0.0000
    41 H1'1       182.6900   222.8070    31.5623 H            1 FMN2070   0.0000
    42 H1'2       182.6534   222.7612    33.1943 H            1 FMN2070   0.0000
    43 H2'        184.3574   224.3737    33.2777 H            1 FMN2070   0.0000
    44 H13        183.7459   224.7526    30.7693 H            1 FMN2070   0.0000
    45 H3'        186.1299   222.9737    32.6573 H            1 FMN2070   0.0000
    46 H15        185.9902   221.4811    31.1478 H            1 FMN2070   0.0000
    47 H4'        184.0307   221.1491    33.2940 H            1 FMN2070   0.0000
    48 H17        184.5330   221.7705    35.6105 H            1 FMN2070   0.0000
    49 H5'1       186.6462   221.1951    34.4537 H            1 FMN2070   0.0000
    50 H5'2       186.1740   220.1838    33.2617 H            1 FMN2070   0.0000
@<TRIPOS>BOND
     1    1    2       1
     2    1   18       2
     3    2    3       2
     4    2    4       1
     5    4    5       1
     6    5    6       2
     7    5    7       1
     8    7    8       2
     9    7   18       1
    10    8    9       1
    11    9   10      ar
    12    9   16      ar
    13   10   11      ar
    14   11   12       1
    15   11   13      ar
    16   13   14       1
    17   13   15      ar
    18   15   16      ar
    19   16   17       1
    20   17   18       1
    21   17   19       1
    22   19   20       1
    23   20   21       1
    24   20   22       1
    25   22   23       1
    26   22   24       1
    27   24   25       1
    28   24   26       1
    29   26   27       1
    30   27   28       1
    31   28   29      ar
    32   28   30      ar
    33   28   31      ar
    34    4   32       1
    35   10   33       1
    36   12   34       1
    37   12   35       1
    38   12   36       1
    39   14   37       1
    40   14   38       1
    41   14   39       1
    42   15   40       1
    43   19   41       1
    44   19   42       1
    45   20   43       1
    46   21   44       1
    47   22   45       1
    48   23   46       1
    49   24   47       1
    50   25   48       1
    51   26   49       1
    52   26   50       1
@<TRIPOS>SUBSTRUCTURE
     1 FMN2070     1 GROUP             4 A     FMN     0 **** FMN A2070
