@<TRIPOS>MOLECULE
2q9u_FMN_1_ligand
   50    52     1     0     0
SMALL
NO_CHARGES


@<TRIPOS>ATOM
     1 N1         -17.3370     6.0720    32.6420 N.2          1 FMN601   0.0000
     2 C2         -17.1200     5.7930    33.9590 C.2          1 FMN601   0.0000
     3 O2         -17.3140     6.6750    34.8120 O.2          1 FMN601   0.0000
     4 N3         -16.7190     4.5260    34.3370 N.pl3        1 FMN601   0.0000
     5 C4         -16.4890     3.5320    33.3990 C.2          1 FMN601   0.0000
     6 O4         -16.0020     2.4740    33.7930 O.2          1 FMN601   0.0000
     7 C4A        -16.6980     3.8160    32.0370 C.2          1 FMN601   0.0000
     8 N5         -16.5200     2.8560    31.0460 N.2          1 FMN601   0.0000
     9 C5A        -16.7570     3.1960    29.7180 C.ar         1 FMN601   0.0000
    10 C6         -16.5800     2.2430    28.7090 C.ar         1 FMN601   0.0000
    11 C7         -16.8080     2.5670    27.3600 C.ar         1 FMN601   0.0000
    12 C7M        -16.7990     1.4510    26.3490 C.3          1 FMN601   0.0000
    13 C8         -17.2260     3.8500    27.0100 C.ar         1 FMN601   0.0000
    14 C8M        -17.3770     4.2710    25.5690 C.3          1 FMN601   0.0000
    15 C9         -17.4080     4.8010    28.0130 C.ar         1 FMN601   0.0000
    16 C9A        -17.1770     4.4860    29.3650 C.ar         1 FMN601   0.0000
    17 N10        -17.3500     5.4440    30.3620 N.pl3        1 FMN601   0.0000
    18 C10        -17.1380     5.1030    31.6810 C.2          1 FMN601   0.0000
    19 C1'        -17.7970     6.8410    30.0490 C.3          1 FMN601   0.0000
    20 C2'        -16.6720     7.6970    29.4720 C.3          1 FMN601   0.0000
    21 O2'        -15.6470     7.9630    30.4270 O.3          1 FMN601   0.0000
    22 C3'        -17.3570     8.9450    28.9100 C.3          1 FMN601   0.0000
    23 O3'        -18.0110     8.5570    27.7110 O.3          1 FMN601   0.0000
    24 C4'        -16.4260    10.0970    28.5950 C.3          1 FMN601   0.0000
    25 O4'        -17.1960    11.2620    28.3300 O.3          1 FMN601   0.0000
    26 C5'        -15.5610     9.8100    27.3740 C.3          1 FMN601   0.0000
    27 O5'        -14.5690    10.8160    27.2650 O.3          1 FMN601   0.0000
    28 P          -14.0040    11.1750    25.8210 P.3          1 FMN601   0.0000
    29 O1P        -12.7260    11.9590    26.0640 O.co2        1 FMN601   0.0000
    30 O2P        -13.7410     9.8810    25.1060 O.co2        1 FMN601  -1.0000
    31 O3P        -14.9970    12.0040    25.0240 O.co2        1 FMN601  -1.0000
    32 H1         -16.5921     4.3219    35.3077 H            1 FMN601   0.0000
    33 H2         -16.2871     1.3180    28.9508 H            1 FMN601   0.0000
    34 H7M1       -16.9735     1.8250    25.4381 H            1 FMN601   0.0000
    35 H7M2       -15.9067     0.9996    26.3587 H            1 FMN601   0.0000
    36 H7M3       -17.5108     0.7873    26.5788 H            1 FMN601   0.0000
    37 H8M1       -17.6845     5.2218    25.5300 H            1 FMN601   0.0000
    38 H8M2       -16.4964     4.1860    25.1029 H            1 FMN601   0.0000
    39 H8M3       -18.0503     3.6842    25.1191 H            1 FMN601   0.0000
    40 H9         -17.7079     5.7229    27.7675 H            1 FMN601   0.0000
    41 H1'1       -18.1266     7.2688    30.8906 H            1 FMN601   0.0000
    42 H1'2       -18.5418     6.7982    29.3830 H            1 FMN601   0.0000
    43 H2'        -16.2626     7.1975    28.7085 H            1 FMN601   0.0000
    44 H13        -15.2496     7.0999    30.7386 H            1 FMN601   0.0000
    45 H3'        -18.0449     9.2571    29.5653 H            1 FMN601   0.0000
    46 H15        -17.3367     8.2026    27.0631 H            1 FMN601   0.0000
    47 H4'        -15.8349    10.2665    29.3836 H            1 FMN601   0.0000
    48 H17        -16.5846    12.0253    28.1214 H            1 FMN601   0.0000
    49 H5'1       -16.1305     9.8102    26.5520 H            1 FMN601   0.0000
    50 H5'2       -15.1230     8.9168    27.4758 H            1 FMN601   0.0000
@<TRIPOS>BOND
     1    1    2       1
     2    1   18       2
     3    2    3       2
     4    2    4       1
     5    4    5       1
     6    5    6       2
     7    5    7       1
     8    7    8       2
     9    7   18       1
    10    8    9       1
    11    9   10      ar
    12    9   16      ar
    13   10   11      ar
    14   11   12       1
    15   11   13      ar
    16   13   14       1
    17   13   15      ar
    18   15   16      ar
    19   16   17       1
    20   17   18       1
    21   17   19       1
    22   19   20       1
    23   20   21       1
    24   20   22       1
    25   22   23       1
    26   22   24       1
    27   24   25       1
    28   24   26       1
    29   26   27       1
    30   27   28       1
    31   28   29      ar
    32   28   30      ar
    33   28   31      ar
    34    4   32       1
    35   10   33       1
    36   12   34       1
    37   12   35       1
    38   12   36       1
    39   14   37       1
    40   14   38       1
    41   14   39       1
    42   15   40       1
    43   19   41       1
    44   19   42       1
    45   20   43       1
    46   21   44       1
    47   22   45       1
    48   23   46       1
    49   24   47       1
    50   25   48       1
    51   26   49       1
    52   26   50       1
@<TRIPOS>SUBSTRUCTURE
     1 FMN601      1 GROUP             4 A     FMN     0 **** FMN A 601
