@<TRIPOS>MOLECULE
4d8n_0HM_1_ligand
   56    59     1     0     0
SMALL
NO_CHARGES


@<TRIPOS>ATOM
     1 CAB         25.5300    10.9030    35.8850 C.ar         1 0HM301   0.0000
     2 CAC         25.6900    12.2830    35.7850 C.ar         1 0HM301   0.0000
     3 CAD         25.6770    12.8960    34.5360 C.ar         1 0HM301   0.0000
     4 CAE         25.5060    12.1280    33.3870 C.ar         1 0HM301   0.0000
     5 CAF         25.3480    10.7510    33.4870 C.ar         1 0HM301   0.0000
     6 CAA         25.3570    10.1350    34.7380 C.ar         1 0HM301   0.0000
     7 CAL         25.1490     8.6250    34.8600 C.3          1 0HM301   0.0000
     8 NAG         25.5970     7.9310    33.6370 N.pl3        1 0HM301   0.0000
     9 CAK         24.8420     7.7530    32.5620 C.2          1 0HM301   0.0000
    10 CAJ         25.5950     7.1170    31.6680 C.2          1 0HM301   0.0000
    11 NAI         26.7960     6.9110    32.2060 N.2          1 0HM301   0.0000
    12 CAH         26.8040     7.4150    33.4340 C.2          1 0HM301   0.0000
    13 CBD         27.9930     7.3870    34.4060 C.3          1 0HM301   0.0000
    14 NAN         27.9750     6.1730    35.2520 N.ar         1 0HM301   1.0000
    15 CAM         28.1990     4.9170    34.6670 C.ar         1 0HM301   0.0000
    16 CAQ         28.1630     3.7690    35.4450 C.ar         1 0HM301   0.0000
    17 CAR         27.9020     3.8700    36.8120 C.ar         1 0HM301   0.0000
    18 CAP         27.6810     5.1080    37.4010 C.ar         1 0HM301   0.0000
    19 OBE         27.4060     5.1730    38.7350 O.3          1 0HM301   0.0000
    20 CAO         27.7220     6.2660    36.6340 C.ar         1 0HM301   0.0000
    21 CAS         27.5930     7.6370    37.3010 C.2          1 0HM301   0.0000
    22 OAU         28.4160     8.5240    37.0580 O.2          1 0HM301   0.0000
    23 NAT         26.5640     7.7660    38.1320 N.am         1 0HM301   0.0000
    24 CAX         26.2340     8.8960    38.7660 C.ar         1 0HM301   0.0000
    25 CAY         24.9530     9.0070    39.2900 C.ar         1 0HM301   0.0000
    26 CAZ         24.5410    10.1910    39.9060 C.ar         1 0HM301   0.0000
    27 CAW         27.1090     9.9730    38.8620 C.ar         1 0HM301   0.0000
    28 CAV         26.7010    11.1570    39.4790 C.ar         1 0HM301   0.0000
    29 CBA         25.4180    11.2640    39.9980 C.ar         1 0HM301   0.0000
    30 CBB         24.9750    12.5780    40.6570 C.3          1 0HM301   0.0000
    31 NBC         23.7750    12.3630    41.4760 N.4          1 0HM301   1.0000
    32 HAB         25.5395    10.4634    36.7831 H            1 0HM301   0.0000
    33 HAC         25.8142    12.8331    36.6108 H            1 0HM301   0.0000
    34 HAD         25.7903    13.8869    34.4635 H            1 0HM301   0.0000
    35 HAE         25.4969    12.5679    32.4890 H            1 0HM301   0.0000
    36 HAF         25.2277    10.2010    32.6606 H            1 0HM301   0.0000
    37 HAL1        24.1771     8.4390    35.0046 H            1 0HM301   0.0000
    38 HAL2        25.6733     8.2843    35.6404 H            1 0HM301   0.0000
    39 HAK         23.8914     8.0407    32.4455 H            1 0HM301   0.0000
    40 HAJ         25.3086     6.8412    30.7504 H            1 0HM301   0.0000
    41 HBD1        27.9500     8.1940    34.9950 H            1 0HM301   0.0000
    42 HBD2        28.8431     7.4035    33.8797 H            1 0HM301   0.0000
    43 HAM         28.3850     4.8495    33.6868 H            1 0HM301   0.0000
    44 HAQ         28.3232     2.8741    35.0285 H            1 0HM301   0.0000
    45 HAR         27.8738     3.0427    37.3731 H            1 0HM301   0.0000
    46 HBE         27.2452     6.0591    39.1698 H            1 0HM301   0.0000
    47 HAT         25.9954     6.9597    38.2949 H            1 0HM301   0.0000
    48 HAY         24.3214     8.2344    39.2260 H            1 0HM301   0.0000
    49 HAZ         23.6166    10.2659    40.2800 H            1 0HM301   0.0000
    50 HAW         28.0334     9.8989    38.4878 H            1 0HM301   0.0000
    51 HAV         27.3335    11.9286    39.5471 H            1 0HM301   0.0000
    52 HBB1        24.7719    13.2509    39.9457 H            1 0HM301   0.0000
    53 HBB2        25.7133    12.9200    41.2383 H            1 0HM301   0.0000
    54 HBC1        23.7721    13.0093    42.2391 H            1 0HM301   0.0000
    55 HBC2        22.9591    12.5052    40.9156 H            1 0HM301   0.0000
    56 HBC3        23.7768    11.4281    41.8309 H            1 0HM301   0.0000
@<TRIPOS>BOND
     1    1    2      ar
     2    1    6      ar
     3    2    3      ar
     4    3    4      ar
     5    4    5      ar
     6    5    6      ar
     7    6    7       1
     8    7    8       1
     9    8    9       1
    10    8   12       1
    11    9   10       2
    12   10   11       1
    13   11   12       2
    14   12   13       1
    15   13   14       1
    16   14   15      ar
    17   14   20      ar
    18   15   16      ar
    19   16   17      ar
    20   17   18      ar
    21   18   19       1
    22   18   20      ar
    23   20   21       1
    24   21   22       2
    25   21   23      am
    26   23   24       1
    27   24   25      ar
    28   24   27      ar
    29   25   26      ar
    30   26   29      ar
    31   27   28      ar
    32   28   29      ar
    33   29   30       1
    34   30   31       1
    35    1   32       1
    36    2   33       1
    37    3   34       1
    38    4   35       1
    39    5   36       1
    40    7   37       1
    41    7   38       1
    42    9   39       1
    43   10   40       1
    44   13   41       1
    45   13   42       1
    46   15   43       1
    47   16   44       1
    48   17   45       1
    49   19   46       1
    50   23   47       1
    51   25   48       1
    52   26   49       1
    53   27   50       1
    54   28   51       1
    55   30   52       1
    56   30   53       1
    57   31   54       1
    58   31   55       1
    59   31   56       1
@<TRIPOS>SUBSTRUCTURE
     1 0HM301      1 GROUP             4 A     0HM     0 **** 0HM A 301
