@<TRIPOS>MOLECULE
2gcp_GSP_1_ligand
   44    46     1     0     0
SMALL
NO_CHARGES


@<TRIPOS>ATOM
     1 PG          17.6580    17.0980    14.0810 P.3          1 GSP1001   0.0000
     2 O3B         17.0190    16.3500    15.4170 O.3          1 GSP1001   0.0000
     3 S1G         19.3290    17.6380    14.5510 S.2          1 GSP1001   0.0000
     4 O2G         16.7060    18.2400    13.7080 O.co2        1 GSP1001  -1.0000
     5 O3G         17.6790    15.9580    13.0430 O.co2        1 GSP1001  -1.0000
     6 PB          15.6650    15.4830    15.6010 P.3          1 GSP1001   0.0000
     7 O1B         14.5760    16.4330    15.9500 O.co2        1 GSP1001   0.0000
     8 O2B         15.3010    14.5950    14.4810 O.co2        1 GSP1001  -1.0000
     9 PA          16.0530    12.9190    16.9590 P.3          1 GSP1001   0.0000
    10 O1A         14.7580    12.2690    16.7050 O.co2        1 GSP1001   0.0000
    11 O2A         17.1710    12.3370    16.1760 O.co2        1 GSP1001  -1.0000
    12 O3A         15.9950    14.5350    16.8650 O.3          1 GSP1001   0.0000
    13 O5'         16.3300    12.8030    18.5430 O.3          1 GSP1001   0.0000
    14 C5'         17.3030    13.6090    19.2140 C.3          1 GSP1001   0.0000
    15 C4'         17.7870    12.8620    20.4610 C.3          1 GSP1001   0.0000
    16 O4'         16.6550    12.7220    21.3080 O.3          1 GSP1001   0.0000
    17 C3'         18.2550    11.4390    20.2040 C.3          1 GSP1001   0.0000
    18 O3'         19.2970    11.1270    21.1120 O.3          1 GSP1001   0.0000
    19 C2'         17.0360    10.5670    20.4990 C.3          1 GSP1001   0.0000
    20 O2'         17.3500     9.2240    20.8440 O.3          1 GSP1001   0.0000
    21 C1'         16.3100    11.3760    21.5620 C.3          1 GSP1001   0.0000
    22 N9          14.8380    11.1800    21.5210 N.pl3        1 GSP1001   0.0000
    23 C8          13.9960    11.1640    20.4270 C.2          1 GSP1001   0.0000
    24 N7          12.7350    10.8900    20.8110 N.2          1 GSP1001   0.0000
    25 C5          12.7530    10.7210    22.1700 C.2          1 GSP1001   0.0000
    26 C6          11.7500    10.4630    23.1190 C.2          1 GSP1001   0.0000
    27 O6          10.5590    10.3010    22.7810 O.2          1 GSP1001   0.0000
    28 N1          12.1190    10.3730    24.4530 N.pl3        1 GSP1001   0.0000
    29 C2          13.4280    10.5270    24.8400 C.2          1 GSP1001   0.0000
    30 N2          13.7740    10.4430    26.1030 N.pl3        1 GSP1001   0.0000
    31 N3          14.4020    10.8020    23.9210 N.2          1 GSP1001   0.0000
    32 C4          14.0720    10.8980    22.6110 C.2          1 GSP1001   0.0000
    33 H5'1        16.8909    14.4797    19.4825 H            1 GSP1001   0.0000
    34 H5'2        18.0763    13.7804    18.6035 H            1 GSP1001   0.0000
    35 H4'         18.5034    13.3850    20.9227 H            1 GSP1001   0.0000
    36 H3'         18.5573    11.3256    19.2575 H            1 GSP1001   0.0000
    37 H5          19.6114    10.1916    20.9500 H            1 GSP1001   0.0000
    38 H2'         16.4632    10.5495    19.6795 H            1 GSP1001   0.0000
    39 H7          17.8435     8.7925    20.0888 H            1 GSP1001   0.0000
    40 H1'         16.6514    11.1139    22.4646 H            1 GSP1001   0.0000
    41 H9          14.2820    11.3320    19.4836 H            1 GSP1001   0.0000
    42 H10         11.4200    10.1929    25.1451 H            1 GSP1001   0.0000
    43 H11         14.7315    10.5576    26.3678 H            1 GSP1001   0.0000
    44 H12         13.0802    10.2644    26.8007 H            1 GSP1001   0.0000
@<TRIPOS>BOND
     1    1    2       1
     2    1    3       2
     3    1    4      ar
     4    1    5      ar
     5    2    6       1
     6    6    7      ar
     7    6    8      ar
     8    6   12       1
     9    9   10      ar
    10    9   11      ar
    11    9   12       1
    12    9   13       1
    13   13   14       1
    14   14   15       1
    15   15   16       1
    16   15   17       1
    17   16   21       1
    18   17   18       1
    19   17   19       1
    20   19   20       1
    21   19   21       1
    22   21   22       1
    23   22   23       1
    24   22   32       1
    25   23   24       2
    26   24   25       1
    27   25   26       1
    28   25   32       2
    29   26   27       2
    30   26   28       1
    31   28   29       1
    32   29   30       1
    33   29   31       2
    34   31   32       1
    35   30   44       1
    36   30   43       1
    37   28   42       1
    38   23   41       1
    39   14   33       1
    40   14   34       1
    41   15   35       1
    42   17   36       1
    43   18   37       1
    44   19   38       1
    45   20   39       1
    46   21   40       1
@<TRIPOS>SUBSTRUCTURE
     1 GSP1001     1 GROUP             4 A     GSP     0 **** GSP A1001
