@<TRIPOS>MOLECULE
2cns_ACO_1_ligand
   85    87     1     0     0
SMALL
NO_CHARGES


@<TRIPOS>ATOM
     1 N1A        -15.1520   -25.0190    49.3310 N.ar         1 ACO601   0.0000
     2 C2A        -14.9270   -24.3600    48.2290 C.ar         1 ACO601   0.0000
     3 N3A        -13.8230   -23.7250    48.0060 N.ar         1 ACO601   0.0000
     4 C4A        -12.8710   -23.7220    48.9040 C.ar         1 ACO601   0.0000
     5 C5A        -13.0490   -24.3930    50.0610 C.ar         1 ACO601   0.0000
     6 C6A        -14.2260   -25.0490    50.2650 C.ar         1 ACO601   0.0000
     7 N6A        -14.3910   -25.7010    51.3960 N.pl3        1 ACO601   0.0000
     8 N7A        -11.9740   -24.2720    50.7970 N.2          1 ACO601   0.0000
     9 C8A        -11.1400   -23.5530    50.0880 C.2          1 ACO601   0.0000
    10 N9A        -11.6910   -23.2080    48.9490 N.pl3        1 ACO601   0.0000
    11 C1B        -11.0580   -22.4830    47.9510 C.3          1 ACO601   0.0000
    12 C2B        -11.3320   -21.0650    47.7310 C.3          1 ACO601   0.0000
    13 O2B        -10.8370   -20.7160    46.4710 O.3          1 ACO601   0.0000
    14 C3B        -10.4370   -20.4330    48.7170 C.3          1 ACO601   0.0000
    15 O3B        -10.0710   -19.2590    48.0780 O.3          1 ACO601   0.0000
    16 P3B        -10.8280   -17.9300    48.0200 P.3          1 ACO601   0.0000
    17 O7A        -10.5710   -17.7480    46.4710 O.co2        1 ACO601   0.0000
    18 O8A         -9.9100   -17.0560    48.8810 O.co2        1 ACO601  -1.0000
    19 O9A        -12.1960   -17.8760    48.4930 O.co2        1 ACO601  -1.0000
    20 C4B         -9.2430   -21.3350    48.6120 C.3          1 ACO601   0.0000
    21 O4B         -9.7600   -22.5900    48.3400 O.3          1 ACO601   0.0000
    22 C5B         -8.1890   -21.3710    49.6890 C.3          1 ACO601   0.0000
    23 O5B         -8.6840   -21.1590    50.8870 O.3          1 ACO601   0.0000
    24 P1A         -7.9270   -21.4220    51.9990 P.3          1 ACO601   0.0000
    25 O1A         -6.6890   -20.9000    51.7200 O.co2        1 ACO601   0.0000
    26 O2A         -8.6930   -20.8190    52.9950 O.co2        1 ACO601  -1.0000
    27 O3A         -7.9550   -22.9120    52.1210 O.3          1 ACO601   0.0000
    28 P2A         -7.7500   -23.6830    53.2700 P.3          1 ACO601   0.0000
    29 O4A         -6.9010   -23.0960    54.1600 O.co2        1 ACO601   0.0000
    30 O5A         -8.9380   -24.1680    53.7210 O.co2        1 ACO601  -1.0000
    31 O6A         -7.0310   -24.8000    52.8310 O.3          1 ACO601   0.0000
    32 CBP         -7.1500   -27.1290    51.9740 C.3          1 ACO601   0.0000
    33 CCP         -7.3880   -25.6350    51.7890 C.3          1 ACO601   0.0000
    34 CDP         -7.6730   -27.7670    50.7320 C.3          1 ACO601   0.0000
    35 CEP         -5.6920   -27.4700    52.0530 C.3          1 ACO601   0.0000
    36 CAP         -7.9150   -27.6840    53.1800 C.3          1 ACO601   0.0000
    37 OAP         -9.2490   -27.6860    52.8330 O.3          1 ACO601   0.0000
    38 C9P         -7.5870   -29.0890    53.6070 C.2          1 ACO601   0.0000
    39 O9P         -6.7110   -29.3460    54.3830 O.2          1 ACO601   0.0000
    40 N8P         -8.4230   -30.1160    53.0940 N.am         1 ACO601   0.0000
    41 C7P         -8.3090   -31.5350    53.4610 C.3          1 ACO601   0.0000
    42 C6P         -6.9250   -32.0450    53.0670 C.3          1 ACO601   0.0000
    43 C5P         -6.8360   -32.1440    51.5410 C.2          1 ACO601   0.0000
    44 O5P         -7.7690   -32.6000    50.8700 O.2          1 ACO601   0.0000
    45 N4P         -5.6930   -31.7070    51.0270 N.am         1 ACO601   0.0000
    46 C3P         -5.4290   -31.7540    49.5880 C.3          1 ACO601   0.0000
    47 C2P         -5.0120   -33.1880    49.1850 C.3          1 ACO601   0.0000
    48 S1P         -4.3980   -33.1980    47.4470 S.3          1 ACO601   0.0000
    49 C           -2.6860   -32.9490    47.7650 C.2          1 ACO601   0.0000
    50 O           -2.3220   -32.8990    48.9380 O.2          1 ACO601   0.0000
    51 CH3         -1.6780   -32.8020    46.6050 C.3          1 ACO601   0.0000
    52 H2A        -15.6384   -24.3449    47.5263 H            1 ACO601   0.0000
    53 H6A1       -13.6647   -25.7016    52.0833 H            1 ACO601   0.0000
    54 H6A2       -15.2427   -26.1959    51.5682 H            1 ACO601   0.0000
    55 H8A        -10.2151   -23.3028    50.3743 H            1 ACO601   0.0000
    56 H1B        -11.1718   -22.9679    47.0838 H            1 ACO601   0.0000
    57 H2B        -12.2940   -20.8238    47.8586 H            1 ACO601   0.0000
    58 H7         -10.5596   -19.7553    46.4762 H            1 ACO601   0.0000
    59 H3B        -10.8159   -20.3240    49.6360 H            1 ACO601   0.0000
    60 H4B         -8.7665   -21.0543    47.7789 H            1 ACO601   0.0000
    61 H5B1        -7.5079   -20.6652    49.4943 H            1 ACO601   0.0000
    62 H5B2        -7.7504   -22.2696    49.6780 H            1 ACO601   0.0000
    63 HCP1        -6.8712   -25.3465    50.9830 H            1 ACO601   0.0000
    64 HCP2        -8.3654   -25.5054    51.6222 H            1 ACO601   0.0000
    65 HDP1        -7.5469   -28.7575    50.7875 H            1 ACO601   0.0000
    66 HDP2        -8.6465   -27.5598    50.6353 H            1 ACO601   0.0000
    67 HDP3        -7.1763   -27.4117    49.9401 H            1 ACO601   0.0000
    68 HEP1        -5.5866   -28.4571    52.1739 H            1 ACO601   0.0000
    69 HEP2        -5.2373   -27.1872    51.2085 H            1 ACO601   0.0000
    70 HEP3        -5.2797   -26.9932    52.8293 H            1 ACO601   0.0000
    71 HAP         -7.7834   -27.0697    53.9580 H            1 ACO601   0.0000
    72 H21         -9.6624   -26.8134    53.0932 H            1 ACO601   0.0000
    73 H8P         -9.1350   -29.8573    52.4412 H            1 ACO601   0.0000
    74 H7P1        -9.0094   -32.0623    52.9799 H            1 ACO601   0.0000
    75 H7P2        -8.4345   -31.6365    54.4479 H            1 ACO601   0.0000
    76 H6P1        -6.7750   -32.9481    53.4694 H            1 ACO601   0.0000
    77 H6P2        -6.2279   -31.4110    53.4016 H            1 ACO601   0.0000
    78 H4P         -4.9942   -31.3361    51.6386 H            1 ACO601   0.0000
    79 H3P1        -4.6913   -31.1172    49.3638 H            1 ACO601   0.0000
    80 H3P2        -6.2560   -31.4950    49.0890 H            1 ACO601   0.0000
    81 H2P1        -5.8018   -33.7967    49.2611 H            1 ACO601   0.0000
    82 H2P2        -4.2861   -33.5059    49.7949 H            1 ACO601   0.0000
    83 HH31        -0.7593   -32.6684    46.9766 H            1 ACO601   0.0000
    84 HH32        -1.6933   -33.6292    46.0432 H            1 ACO601   0.0000
    85 HH33        -1.9284   -32.0132    46.0437 H            1 ACO601   0.0000
@<TRIPOS>BOND
     1    1    2      ar
     2    1    6      ar
     3    2    3      ar
     4    3    4      ar
     5    4    5      ar
     6    4   10       1
     7    5    6      ar
     8    5    8       1
     9    6    7       1
    10    8    9       2
    11    9   10       1
    12   10   11       1
    13   11   12       1
    14   11   21       1
    15   12   13       1
    16   12   14       1
    17   14   15       1
    18   14   20       1
    19   15   16       1
    20   16   17      ar
    21   16   18      ar
    22   16   19      ar
    23   20   21       1
    24   20   22       1
    25   22   23       1
    26   23   24       1
    27   24   25      ar
    28   24   26      ar
    29   24   27       1
    30   27   28       1
    31   28   29      ar
    32   28   30      ar
    33   28   31       1
    34   31   33       1
    35   32   33       1
    36   32   34       1
    37   32   35       1
    38   32   36       1
    39   36   37       1
    40   36   38       1
    41   38   39       2
    42   38   40      am
    43   40   41       1
    44   41   42       1
    45   42   43       1
    46   43   44       2
    47   43   45      am
    48   45   46       1
    49   46   47       1
    50   47   48       1
    51   48   49       1
    52   49   50       2
    53   49   51       1
    54    2   52       1
    55    7   53       1
    56    7   54       1
    57    9   55       1
    58   11   56       1
    59   12   57       1
    60   13   58       1
    61   14   59       1
    62   51   85       1
    63   51   84       1
    64   20   60       1
    65   22   61       1
    66   22   62       1
    67   51   83       1
    68   47   82       1
    69   33   63       1
    70   33   64       1
    71   34   65       1
    72   34   66       1
    73   34   67       1
    74   35   68       1
    75   35   69       1
    76   35   70       1
    77   36   71       1
    78   37   72       1
    79   40   73       1
    80   41   74       1
    81   41   75       1
    82   42   76       1
    83   42   77       1
    84   45   78       1
    85   46   79       1
    86   46   80       1
    87   47   81       1
@<TRIPOS>SUBSTRUCTURE
     1 ACO601      1 GROUP             4 A     ACO     0 **** ACO A 601
