@<TRIPOS>MOLECULE
4g3s_UD1_1_ligand
   63    65     1     0     0
SMALL
NO_CHARGES


@<TRIPOS>ATOM
     1 C1'          4.9680    25.5530   -20.0780 C.3          1 UD1501   0.0000
     2 C2'          5.1500    25.8680   -21.5580 C.3          1 UD1501   0.0000
     3 C3'          4.7950    24.6630   -22.4200 C.3          1 UD1501   0.0000
     4 C4'          5.4890    23.4040   -21.9120 C.3          1 UD1501   0.0000
     5 C5'          5.2860    23.2370   -20.4110 C.3          1 UD1501   0.0000
     6 C6'          6.0420    22.0210   -19.8900 C.3          1 UD1501   0.0000
     7 C7'          4.8360    28.2260   -22.0340 C.2          1 UD1501   0.0000
     8 C8'          3.9210    29.2630   -22.6160 C.3          1 UD1501   0.0000
     9 N2'          4.3260    27.0020   -21.9280 N.am         1 UD1501   0.0000
    10 O1'          3.5910    25.2910   -19.8130 O.3          1 UD1501   0.0000
    11 O3'          5.1890    24.9120   -23.7740 O.3          1 UD1501   0.0000
    12 O4'          4.9630    22.2610   -22.5950 O.3          1 UD1501   0.0000
    13 O5'          5.7440    24.4070   -19.7360 O.3          1 UD1501   0.0000
    14 O6'          6.0130    22.0180   -18.4590 O.3          1 UD1501   0.0000
    15 O7'          5.9730    28.4890   -21.6790 O.2          1 UD1501   0.0000
    16 N1           6.6910    31.4090   -14.6650 N.pl3        1 UD1501   0.0000
    17 C2           7.1710    32.7000   -14.3610 C.2          1 UD1501   0.0000
    18 N3           6.4680    33.7820   -14.7150 N.pl3        1 UD1501  -1.0000
    19 C4           5.3020    33.6570   -15.3590 C.2          1 UD1501   0.0000
    20 C5           4.8070    32.3960   -15.6700 C.2          1 UD1501   0.0000
    21 C6           5.5290    31.2660   -15.3080 C.2          1 UD1501   0.0000
    22 O2           8.2590    32.8340   -13.7590 O.2          1 UD1501   0.0000
    23 O4           4.6560    34.6770   -15.6830 O.2          1 UD1501   0.0000
    24 C1B          7.4650    30.2280   -14.2760 C.3          1 UD1501   0.0000
    25 C2B          6.6400    29.3700   -13.3270 C.3          1 UD1501   0.0000
    26 O2'          7.3520    29.1980   -12.0970 O.3          1 UD1501   0.0000
    27 C3B          6.4740    28.0230   -14.0090 C.3          1 UD1501   0.0000
    28 C4B          7.2060    28.1260   -15.3400 C.3          1 UD1501   0.0000
    29 O4B          7.7550    29.4440   -15.4360 O.3          1 UD1501   0.0000
    30 O3B          7.0830    27.0040   -13.2070 O.3          1 UD1501   0.0000
    31 C5B          6.2550    27.8850   -16.5060 C.3          1 UD1501   0.0000
    32 O5B          4.9410    28.3010   -16.1430 O.3          1 UD1501   0.0000
    33 PA           3.6940    27.2940   -16.2920 P.3          1 UD1501   0.0000
    34 O1A          2.4210    28.0930   -16.1470 O.co2        1 UD1501   0.0000
    35 O2A          3.9410    26.1010   -15.3990 O.co2        1 UD1501  -1.0000
    36 O3A          3.8140    26.8090   -17.8220 O.3          1 UD1501   0.0000
    37 PB           2.9810    25.5340   -18.3430 P.3          1 UD1501   0.0000
    38 O1B          3.3420    24.3490   -17.4800 O.co2        1 UD1501   0.0000
    39 O2B          1.5350    25.9430   -18.4940 O.co2        1 UD1501  -1.0000
    40 H1'          5.2695    26.3344   -19.5317 H            1 UD1501   0.0000
    41 H2'          6.1084    26.1040   -21.7186 H            1 UD1501   0.0000
    42 H3'          3.8053    24.5227   -22.3903 H            1 UD1501   0.0000
    43 H4'          6.4684    23.4737   -22.1017 H            1 UD1501   0.0000
    44 H5'          4.3106    23.1165   -20.2266 H            1 UD1501   0.0000
    45 H6'1         6.9907    22.0586   -20.2041 H            1 UD1501   0.0000
    46 H6'2         5.6098    21.1873   -20.2339 H            1 UD1501   0.0000
    47 H8'1         4.3950    30.1428   -22.6529 H            1 UD1501   0.0000
    48 H8'2         3.6525    28.9900   -23.5398 H            1 UD1501   0.0000
    49 H8'3         3.1057    29.3474   -22.0432 H            1 UD1501   0.0000
    50 H11          3.3524    26.8609   -22.1076 H            1 UD1501   0.0000
    51 H12          4.4345    25.3460   -24.2663 H            1 UD1501   0.0000
    52 H13          5.6706    21.5575   -22.6613 H            1 UD1501   0.0000
    53 H6'          5.9693    22.9594   -18.1245 H            1 UD1501   0.0000
    54 H15          3.9357    32.3028   -16.1518 H            1 UD1501   0.0000
    55 H16          5.1821    30.3539   -15.5267 H            1 UD1501   0.0000
    56 H1B          8.3158    30.5082   -13.8314 H            1 UD1501   0.0000
    57 H2B          5.7482    29.7905   -13.1599 H            1 UD1501   0.0000
    58 H19          7.5183    28.2243   -11.9415 H            1 UD1501   0.0000
    59 H3B          5.5056    27.8214   -14.1561 H            1 UD1501   0.0000
    60 H4B          7.9454    27.4533   -15.3675 H            1 UD1501   0.0000
    61 H22          6.5997    26.1392   -13.3433 H            1 UD1501   0.0000
    62 H5B1         6.2454    26.9110   -16.7322 H            1 UD1501   0.0000
    63 H5B2         6.5626    28.4087   -17.3004 H            1 UD1501   0.0000
@<TRIPOS>BOND
     1    1    2       1
     2    1   10       1
     3    1   13       1
     4    2    3       1
     5    2    9       1
     6    3    4       1
     7    3   11       1
     8    4    5       1
     9    4   12       1
    10    5    6       1
    11    5   13       1
    12    6   14       1
    13    7    8       1
    14    7    9      am
    15    7   15       2
    16   10   37       1
    17   16   17       1
    18   16   21       1
    19   16   24       1
    20   17   18       1
    21   17   22       2
    22   18   19       1
    23   19   20       1
    24   19   23       2
    25   20   21       2
    26   24   25       1
    27   24   29       1
    28   25   26       1
    29   25   27       1
    30   27   28       1
    31   27   30       1
    32   28   29       1
    33   28   31       1
    34   31   32       1
    35   32   33       1
    36   33   34      ar
    37   33   35      ar
    38   33   36       1
    39   36   37       1
    40   37   38      ar
    41   37   39      ar
    42    1   40       1
    43    2   41       1
    44    3   42       1
    45    4   43       1
    46    5   44       1
    47    6   45       1
    48    6   46       1
    49    8   47       1
    50    8   48       1
    51    8   49       1
    52    9   50       1
    53   11   51       1
    54   12   52       1
    55   14   53       1
    56   31   63       1
    57   20   54       1
    58   21   55       1
    59   24   56       1
    60   25   57       1
    61   26   58       1
    62   27   59       1
    63   28   60       1
    64   30   61       1
    65   31   62       1
@<TRIPOS>SUBSTRUCTURE
     1 UD1501      1 GROUP             4 A     UD1     0 **** UD1 A 501
