@<TRIPOS>MOLECULE
3zhu_TD8_4_ligand
   59    60     1     0     0
SMALL
NO_CHARGES


@<TRIPOS>ATOM
     1 S1          19.3390    12.9550   -71.0790 S.3          1 TD82001   0.0000
     2 C2          18.4210    13.5860   -72.4370 C.3          1 TD82001   0.0000
     3 N3          19.1530    14.5010   -73.1510 N.pl3        1 TD82001   0.0000
     4 C4          20.4340    14.6940   -72.6860 C.2          1 TD82001   0.0000
     5 C5          20.7670    13.8050   -71.5390 C.2          1 TD82001   0.0000
     6 C8          17.3770    12.6300   -72.9710 C.3          1 TD82001   0.0000
     7 C9          16.1560    12.4270   -72.0900 C.3          1 TD82001   0.0000
     8 O9          17.0950    12.7320   -74.2710 O.3          1 TD82001   0.0000
     9 PA          22.3500    14.4750   -66.7060 P.3          1 TD82001   0.0000
    10 PB          21.9890    11.6390   -66.2590 P.3          1 TD82001   0.0000
    11 N1'         17.9490    18.9700   -73.9040 N.ar         1 TD82001   1.0000
    12 C10         16.2370    11.1760   -71.2350 C.3          1 TD82001   0.0000
    13 O11         13.0240    11.6150   -70.6470 O.co2        1 TD82001   0.0000
    14 C12         14.9650    10.3160   -71.2290 C.3          1 TD82001   0.0000
    15 O12         13.2060    10.8680   -72.7370 O.co2        1 TD82001  -1.0000
    16 C14         13.6420    10.9920   -71.5580 C.2          1 TD82001   0.0000
    17 O1A         23.7930    14.4570   -66.2610 O.co2        1 TD82001   0.0000
    18 O1B         23.5130    11.5990   -66.1690 O.co2        1 TD82001   0.0000
    19 C2'         16.8990    19.0210   -73.0480 C.ar         1 TD82001   0.0000
    20 C2A         16.2980    20.3300   -72.6180 C.3          1 TD82001   0.0000
    21 O2A         21.5250    15.7280   -66.4830 O.co2        1 TD82001  -1.0000
    22 O2B         21.4750    11.0870   -67.5460 O.co2        1 TD82001  -1.0000
    23 N3'         16.3720    17.8790   -72.5660 N.ar         1 TD82001   0.0000
    24 C35         18.5980    15.2780   -74.2810 C.3          1 TD82001   0.0000
    25 O3A         21.5110    13.1940   -66.2430 O.3          1 TD82001   0.0000
    26 O3B         21.2880    11.1340   -65.0100 O.co2        1 TD82001  -1.0000
    27 C4'         16.8930    16.6710   -72.9080 C.ar         1 TD82001   0.0000
    28 N4'         16.2560    15.5970   -72.4040 N.pl3        1 TD82001   0.0000
    29 C4A         21.4580    15.6310   -73.2870 C.3          1 TD82001   0.0000
    30 C5'         17.9730    16.5880   -73.8020 C.ar         1 TD82001   0.0000
    31 C5A         21.9480    13.7150   -70.6230 C.3          1 TD82001   0.0000
    32 C5B         21.5830    14.4420   -69.3200 C.3          1 TD82001   0.0000
    33 O5G         22.5100    14.1310   -68.2850 O.3          1 TD82001   0.0000
    34 C6'         18.4760    17.7920   -74.2940 C.ar         1 TD82001   0.0000
    35 H1          17.8208    14.2151   -71.9430 H            1 TD82001   0.0000
    36 H2          17.8391    11.7450   -72.9145 H            1 TD82001   0.0000
    37 H3          15.3487    12.3595   -72.6763 H            1 TD82001   0.0000
    38 H4          16.0643    13.2190   -71.4865 H            1 TD82001   0.0000
    39 H5          17.9229    12.5632   -74.8059 H            1 TD82001   0.0000
    40 H6          16.4286    11.4544   -70.2938 H            1 TD82001   0.0000
    41 H7          16.9906    10.6143   -71.5764 H            1 TD82001   0.0000
    42 H8          14.8776     9.9214   -70.3143 H            1 TD82001   0.0000
    43 H9          15.0985     9.5836   -71.8967 H            1 TD82001   0.0000
    44 H2A1        15.5393    20.1580   -71.9897 H            1 TD82001   0.0000
    45 H2A2        16.9939    20.8810   -72.1574 H            1 TD82001   0.0000
    46 H2A3        15.9610    20.8218   -73.4209 H            1 TD82001   0.0000
    47 H13         17.8971    14.7312   -74.7389 H            1 TD82001   0.0000
    48 H14         19.3335    15.4850   -74.9261 H            1 TD82001   0.0000
    49 H4'1        16.5848    14.6763   -72.6145 H            1 TD82001   0.0000
    50 H4'2        15.4542    15.7201   -71.8192 H            1 TD82001   0.0000
    51 H4A1        22.3057    15.5814   -72.7589 H            1 TD82001   0.0000
    52 H4A2        21.6389    15.3642   -74.2336 H            1 TD82001   0.0000
    53 H4A3        21.1064    16.5669   -73.2658 H            1 TD82001   0.0000
    54 H5A1        22.7417    14.1520   -71.0463 H            1 TD82001   0.0000
    55 H5A2        22.1582    12.7564   -70.4310 H            1 TD82001   0.0000
    56 H5B1        20.6671    14.1605   -69.0340 H            1 TD82001   0.0000
    57 H5B2        21.5930    15.4287   -69.4823 H            1 TD82001   0.0000
    58 H6'         19.2363    17.7815   -74.9435 H            1 TD82001   0.0000
    59 H1'         18.3398    19.8219   -74.2526 H            1 TD82001   0.0000
@<TRIPOS>BOND
     1    1    2       1
     2    1    5       1
     3    2    3       1
     4    2    6       1
     5    3    4       1
     6    3   24       1
     7    4    5       2
     8    4   29       1
     9    5   31       1
    10    6    7       1
    11    6    8       1
    12    7   12       1
    13    9   17      ar
    14    9   21      ar
    15    9   25       1
    16    9   33       1
    17   10   18      ar
    18   10   22      ar
    19   10   25       1
    20   10   26      ar
    21   11   19      ar
    22   11   34      ar
    23   12   14       1
    24   13   16      ar
    25   14   16       1
    26   15   16      ar
    27   19   20       1
    28   19   23      ar
    29   23   27      ar
    30   24   30       1
    31   27   28       1
    32   27   30      ar
    33   30   34      ar
    34   31   32       1
    35   32   33       1
    36    2   35       1
    37    6   36       1
    38    7   37       1
    39    7   38       1
    40    8   39       1
    41   12   40       1
    42   12   41       1
    43   34   58       1
    44   14   42       1
    45   14   43       1
    46   32   57       1
    47   32   56       1
    48   20   44       1
    49   20   45       1
    50   20   46       1
    51   31   55       1
    52   24   47       1
    53   24   48       1
    54   28   49       1
    55   28   50       1
    56   29   51       1
    57   29   52       1
    58   29   53       1
    59   31   54       1
    60   11   59       1
@<TRIPOS>SUBSTRUCTURE
     1 TD82001     1 GROUP             4 D     TD8     0 **** TD8 D2001
