@<TRIPOS>MOLECULE
2ea1_GPG_1_ligand
   67    72     1     0     0
SMALL
NO_CHARGES


@<TRIPOS>ATOM
     1 N9A         14.2440    13.9770    22.1470 N.pl3        1 GPG250   0.0000
     2 C8A         13.0050    14.3830    21.7440 C.2          1 GPG250   0.0000
     3 N7A         12.0530    14.3360    22.7320 N.2          1 GPG250   0.0000
     4 C5A         12.6860    13.8430    23.8150 C.2          1 GPG250   0.0000
     5 C6A         12.3400    13.5000    25.2200 C.2          1 GPG250   0.0000
     6 O6A         11.1530    13.6730    25.6300 O.2          1 GPG250   0.0000
     7 N1A         13.3010    13.0170    26.0390 N.2          1 GPG250   0.0000
     8 C2A         14.5900    12.8080    25.6490 C.2          1 GPG250   0.0000
     9 N2A         15.4220    12.3030    26.5830 N.pl3        1 GPG250   0.0000
    10 N3A         15.0360    13.0670    24.3830 N.pl3        1 GPG250   0.0000
    11 C4A         14.0880    13.6260    23.4320 C.2          1 GPG250   0.0000
    12 O5D         20.1420    13.6130    20.9570 O.3          1 GPG250   0.0000
    13 C5D         18.8650    13.7600    21.6030 C.3          1 GPG250   0.0000
    14 C4D         17.6940    13.3910    20.6780 C.3          1 GPG250   0.0000
    15 O4D         16.4760    13.0010    21.3770 O.3          1 GPG250   0.0000
    16 C3D         17.4250    14.6840    19.9930 C.3          1 GPG250   0.0000
    17 O3D         17.0430    14.1730    18.7020 O.3          1 GPG250   0.0000
    18 C2D         16.1240    15.1730    20.5630 C.3          1 GPG250   0.0000
    19 O2D         15.6280    16.4440    20.0090 O.3          1 GPG250   0.0000
    20 C1D         15.4220    13.9760    21.2040 C.3          1 GPG250   0.0000
    21 P           16.4810    17.7000    20.6400 P.3          1 GPG250   0.0000
    22 O1P         18.0020    17.5680    20.1570 O.co2        1 GPG250   0.0000
    23 O2P         16.3820    17.6010    22.2500 O.co2        1 GPG250  -1.0000
    24 O5E         16.0320    19.2210    20.2930 O.3          1 GPG250   0.0000
    25 C5E         16.4710    20.3190    21.1090 C.3          1 GPG250   0.0000
    26 C4E         15.2740    20.7710    21.9710 C.3          1 GPG250   0.0000
    27 O4E         14.1360    19.8750    22.0200 O.3          1 GPG250   0.0000
    28 C3E         15.4520    21.4230    23.3440 C.3          1 GPG250   0.0000
    29 O3E         15.6880    22.8310    23.2460 O.3          1 GPG250   0.0000
    30 C2E         14.2220    20.9880    24.1780 C.3          1 GPG250   0.0000
    31 O2E         13.3110    21.9600    24.6740 O.3          1 GPG250   0.0000
    32 C1E         13.4110    20.1200    23.2390 C.3          1 GPG250   0.0000
    33 N9B         12.5010    19.0780    23.7750 N.pl3        1 GPG250   0.0000
    34 C8B         12.7370    17.8670    24.3730 C.2          1 GPG250   0.0000
    35 N7B         11.5370    17.2330    24.6920 N.2          1 GPG250   0.0000
    36 C5B         10.5120    18.0370    24.2610 C.2          1 GPG250   0.0000
    37 C6B          9.0250    18.1010    24.2490 C.2          1 GPG250   0.0000
    38 O6B          8.3550    17.1380    24.7150 O.2          1 GPG250   0.0000
    39 N1B          8.3850    19.1810    23.7010 N.2          1 GPG250   0.0000
    40 C2B          9.0110    20.2580    23.1670 C.2          1 GPG250   0.0000
    41 N2B          8.2640    21.3010    22.7080 N.pl3        1 GPG250   0.0000
    42 N3B         10.3850    20.3290    23.1610 N.pl3        1 GPG250   0.0000
    43 C4B         11.1590    19.2010    23.6830 C.2          1 GPG250   0.0000
    44 H8A         12.8081    14.6876    20.8121 H            1 GPG250   0.0000
    45 H2A1        16.3802    12.1277    26.3568 H            1 GPG250   0.0000
    46 H2A2        15.0806    12.1039    27.5016 H            1 GPG250   0.0000
    47 H5D         20.7881    14.2722    21.3418 H            1 GPG250   0.0000
    48 H5D1        18.7588    14.7116    21.8915 H            1 GPG250   0.0000
    49 H5D2        18.8406    13.1637    22.4054 H            1 GPG250   0.0000
    50 H4D         17.9673    12.6894    20.0200 H            1 GPG250   0.0000
    51 H3D         18.1770    15.3432    19.9956 H            1 GPG250   0.0000
    52 H9          16.1090    14.4620    18.4922 H            1 GPG250   0.0000
    53 H2D         16.5017    15.5530    21.4074 H            1 GPG250   0.0000
    54 H1D         14.9796    13.5941    20.3926 H            1 GPG250   0.0000
    55 H5E1        16.7769    21.0737    20.5286 H            1 GPG250   0.0000
    56 H5E2        17.2236    20.0256    21.6985 H            1 GPG250   0.0000
    57 H4E         14.9109    21.5306    21.4314 H            1 GPG250   0.0000
    58 H3E         16.2601    21.0132    23.7670 H            1 GPG250   0.0000
    59 H16         15.7981    23.2151    24.1627 H            1 GPG250   0.0000
    60 H2E         14.5367    20.4251    24.9423 H            1 GPG250   0.0000
    61 H18         12.9067    21.6328    25.5281 H            1 GPG250   0.0000
    62 H1E         12.7418    20.7886    22.9147 H            1 GPG250   0.0000
    63 H8B         13.6452    17.4902    24.5553 H            1 GPG250   0.0000
    64 H2B1         8.7134    22.1016    22.3117 H            1 GPG250   0.0000
    65 H2B2         7.2664    21.2658    22.7674 H            1 GPG250   0.0000
    66 H3A         15.9821    12.8785    24.1196 H            1 GPG250   0.0000
    67 H3B         10.8489    21.1402    22.8049 H            1 GPG250   0.0000
@<TRIPOS>BOND
     1    1    2       1
     2    1   11       1
     3    1   20       1
     4    2    3       2
     5    3    4       1
     6    4    5       1
     7    4   11       2
     8    5    6       2
     9    5    7       1
    10    7    8       2
    11    8    9       1
    12    8   10       1
    13   10   11       1
    14   12   13       1
    15   13   14       1
    16   14   15       1
    17   14   16       1
    18   15   20       1
    19   16   17       1
    20   16   18       1
    21   18   19       1
    22   18   20       1
    23   19   21       1
    24   21   22      ar
    25   21   23      ar
    26   21   24       1
    27   24   25       1
    28   25   26       1
    29   26   27       1
    30   26   28       1
    31   27   32       1
    32   28   29       1
    33   28   30       1
    34   30   31       1
    35   30   32       1
    36   32   33       1
    37   33   34       1
    38   33   43       1
    39   34   35       2
    40   35   36       1
    41   36   37       1
    42   36   43       2
    43   37   38       2
    44   37   39       1
    45   39   40       2
    46   40   41       1
    47   40   42       1
    48   42   43       1
    49    2   44       1
    50   41   64       1
    51    9   45       1
    52    9   46       1
    53   12   47       1
    54   13   48       1
    55   13   49       1
    56   14   50       1
    57   16   51       1
    58   17   52       1
    59   18   53       1
    60   20   54       1
    61   41   65       1
    62   25   55       1
    63   25   56       1
    64   26   57       1
    65   28   58       1
    66   29   59       1
    67   30   60       1
    68   31   61       1
    69   32   62       1
    70   34   63       1
    71   10   66       1
    72   42   67       1
@<TRIPOS>SUBSTRUCTURE
     1 GPG250      1 GROUP             4 A     GPG     0 **** GPG A 250
