@<TRIPOS>MOLECULE
4gi2_NAP_1_ligand
   73    77     1     0     0
SMALL
NO_CHARGES


@<TRIPOS>ATOM
     1 PA          14.8530    30.5060   -22.7390 P.3          1 NAP502   0.0000
     2 O1A         15.5240    30.9670   -24.0100 O.co2        1 NAP502   0.0000
     3 O2A         13.7530    29.5130   -23.0020 O.co2        1 NAP502  -1.0000
     4 O5B         15.8960    29.8410   -21.7670 O.3          1 NAP502   0.0000
     5 C5B         15.8340    28.4740   -21.6320 C.3          1 NAP502   0.0000
     6 C4B         17.2200    27.9780   -21.5200 C.3          1 NAP502   0.0000
     7 O4B         17.3700    27.5270   -20.1980 O.3          1 NAP502   0.0000
     8 C3B         17.4830    26.8850   -22.5050 C.3          1 NAP502   0.0000
     9 O3B         18.3160    27.3270   -23.5140 O.3          1 NAP502   0.0000
    10 C2B         18.1270    25.8240   -21.7550 C.3          1 NAP502   0.0000
    11 O2B         19.4330    25.6950   -22.1550 O.3          1 NAP502   0.0000
    12 C1B         18.0390    26.3380   -20.3950 C.3          1 NAP502   0.0000
    13 N9A         17.3090    25.2790   -19.5300 N.pl3        1 NAP502   0.0000
    14 C8A         15.9170    24.9430   -19.5790 C.2          1 NAP502   0.0000
    15 N7A         15.7310    23.9550   -18.6370 N.2          1 NAP502   0.0000
    16 C5A         16.8790    23.7070   -18.0630 C.ar         1 NAP502   0.0000
    17 C6A         17.1540    22.7710   -17.0420 C.ar         1 NAP502   0.0000
    18 N6A         16.1360    21.9450   -16.4960 N.pl3        1 NAP502   0.0000
    19 N1A         18.4580    22.7100   -16.6140 N.ar         1 NAP502   0.0000
    20 C2A         19.4230    23.4940   -17.1310 C.ar         1 NAP502   0.0000
    21 N3A         19.1150    24.3710   -18.1000 N.ar         1 NAP502   0.0000
    22 C4A         17.8550    24.4610   -18.5470 C.ar         1 NAP502   0.0000
    23 O3          14.2070    31.7080   -21.9380 O.3          1 NAP502   0.0000
    24 PN          15.1510    32.7550   -21.2460 P.3          1 NAP502   0.0000
    25 O1N         15.1540    34.0170   -22.0760 O.co2        1 NAP502   0.0000
    26 O2N         16.5540    32.1940   -21.0690 O.co2        1 NAP502  -1.0000
    27 O5D         14.5480    32.9690   -19.8160 O.3          1 NAP502   0.0000
    28 C5D         14.3200    31.8360   -19.0030 C.3          1 NAP502   0.0000
    29 C4D         13.4900    32.0980   -17.7480 C.3          1 NAP502   0.0000
    30 O4D         13.8240    33.3410   -17.1320 O.3          1 NAP502   0.0000
    31 C3D         12.0380    32.0730   -17.9820 C.3          1 NAP502   0.0000
    32 O3D         11.4520    31.5300   -16.8600 O.3          1 NAP502   0.0000
    33 C2D         11.6800    33.4740   -18.0720 C.3          1 NAP502   0.0000
    34 O2D         10.3820    33.6880   -17.7100 O.3          1 NAP502   0.0000
    35 C1D         12.5640    33.9550   -17.0110 C.3          1 NAP502   0.0000
    36 N1N         12.6890    35.4100   -16.9930 N.ar         1 NAP502   1.0000
    37 C2N         12.3200    36.0270   -15.8140 C.ar         1 NAP502   0.0000
    38 C3N         12.4240    37.4280   -15.6810 C.ar         1 NAP502   0.0000
    39 C7N         11.9810    38.0530   -14.3610 C.2          1 NAP502   0.0000
    40 O7N         12.5380    39.0490   -13.9180 O.2          1 NAP502   0.0000
    41 N7N         10.8700    37.4660   -13.6400 N.am         1 NAP502   0.0000
    42 C4N         12.9080    38.1700   -16.7950 C.ar         1 NAP502   0.0000
    43 C5N         13.2770    37.4770   -17.9840 C.ar         1 NAP502   0.0000
    44 C6N         13.1590    36.0790   -18.0620 C.ar         1 NAP502   0.0000
    45 P2B         20.2190    24.3460   -22.0860 P.3          1 NAP502   0.0000
    46 O1X         21.1540    24.2510   -23.2840 O.co2        1 NAP502   0.0000
    47 O2X         19.2220    23.2100   -22.0740 O.co2        1 NAP502  -1.0000
    48 O3X         21.0660    24.3120   -20.8280 O.co2        1 NAP502  -1.0000
    49 H5B1        15.3905    28.0712   -22.4327 H            1 NAP502   0.0000
    50 H5B2        15.3179    28.2348   -20.8095 H            1 NAP502   0.0000
    51 H4B         17.8553    28.7322   -21.6859 H            1 NAP502   0.0000
    52 H3B         16.6209    26.5571   -22.8913 H            1 NAP502   0.0000
    53 H5          19.1487    26.7734   -23.5253 H            1 NAP502   0.0000
    54 H2B         17.6315    24.9605   -21.8494 H            1 NAP502   0.0000
    55 H1B         18.9685    26.4417   -20.0410 H            1 NAP502   0.0000
    56 H8A         15.2219    25.3441   -20.1756 H            1 NAP502   0.0000
    57 H6A1        16.3574    21.2901   -15.7735 H            1 NAP502   0.0000
    58 H6A2        15.1977    22.0183   -16.8341 H            1 NAP502   0.0000
    59 H2A         20.3625    23.4236   -16.7956 H            1 NAP502   0.0000
    60 H5D1        15.2080    31.4752   -18.7178 H            1 NAP502   0.0000
    61 H5D2        13.8427    31.1506   -19.5530 H            1 NAP502   0.0000
    62 H4D         13.7005    31.3726   -17.0926 H            1 NAP502   0.0000
    63 H3D         11.7993    31.5695   -18.8123 H            1 NAP502   0.0000
    64 H16         10.4603    31.4975   -16.9845 H            1 NAP502   0.0000
    65 H2D         11.9000    33.8698   -18.9636 H            1 NAP502   0.0000
    66 H18         10.1716    34.6628   -17.7843 H            1 NAP502   0.0000
    67 H1D         12.1707    33.6726   -16.1360 H            1 NAP502   0.0000
    68 H2N         11.9776    35.4786   -15.0511 H            1 NAP502   0.0000
    69 H7N1        10.5692    37.8652   -12.7739 H            1 NAP502   0.0000
    70 H7N2        10.4039    36.6616   -14.0084 H            1 NAP502   0.0000
    71 H4N         12.9881    39.1655   -16.7438 H            1 NAP502   0.0000
    72 H5N         13.6229    37.9899   -18.7697 H            1 NAP502   0.0000
    73 H6N         13.4191    35.5909   -18.8952 H            1 NAP502   0.0000
@<TRIPOS>BOND
     1    1    2      ar
     2    1    3      ar
     3    1    4       1
     4    1   23       1
     5    4    5       1
     6    5    6       1
     7    6    7       1
     8    6    8       1
     9    7   12       1
    10    8    9       1
    11    8   10       1
    12   10   11       1
    13   10   12       1
    14   11   45       1
    15   12   13       1
    16   13   14       1
    17   13   22       1
    18   14   15       2
    19   15   16       1
    20   16   17      ar
    21   16   22      ar
    22   17   18       1
    23   17   19      ar
    24   19   20      ar
    25   20   21      ar
    26   21   22      ar
    27   23   24       1
    28   24   25      ar
    29   24   26      ar
    30   24   27       1
    31   27   28       1
    32   28   29       1
    33   29   30       1
    34   29   31       1
    35   30   35       1
    36   31   32       1
    37   31   33       1
    38   33   34       1
    39   33   35       1
    40   35   36       1
    41   36   37      ar
    42   36   44      ar
    43   37   38      ar
    44   38   39       1
    45   38   42      ar
    46   39   40       2
    47   39   41      am
    48   42   43      ar
    49   43   44      ar
    50   45   46      ar
    51   45   47      ar
    52   45   48      ar
    53   43   72       1
    54    5   49       1
    55    5   50       1
    56    6   51       1
    57    8   52       1
    58    9   53       1
    59   10   54       1
    60   12   55       1
    61   14   56       1
    62   18   57       1
    63   18   58       1
    64   20   59       1
    65   44   73       1
    66   28   60       1
    67   28   61       1
    68   29   62       1
    69   31   63       1
    70   32   64       1
    71   33   65       1
    72   34   66       1
    73   35   67       1
    74   37   68       1
    75   41   69       1
    76   41   70       1
    77   42   71       1
@<TRIPOS>SUBSTRUCTURE
     1 NAP502      1 GROUP             4 A     NAP     0 **** NAP A 502
