@<TRIPOS>MOLECULE
3v94_WYQ_7_ligand
   60    62     1     0     0
SMALL
NO_CHARGES


@<TRIPOS>ATOM
     1 C16        -37.9220    26.3590   -48.3360 C.3          1 WYQ701   0.0000
     2 C15        -38.0450    27.1130   -47.0120 C.3          1 WYQ701   0.0000
     3 C17        -37.0990    28.3160   -47.0360 C.3          1 WYQ701   0.0000
     4 O6         -39.4040    27.5600   -46.9170 O.3          1 WYQ701   0.0000
     5 C14        -39.6950    28.0440   -45.6790 C.2          1 WYQ701   0.0000
     6 O5         -38.8270    28.0410   -44.8080 O.2          1 WYQ701   0.0000
     7 N5         -40.9320    28.4880   -45.4730 N.am         1 WYQ701   0.0000
     8 S1         -41.6660    27.5180   -44.3900 S.o2         1 WYQ701   0.0000
     9 O4         -42.8860    28.1250   -43.9580 O.2          1 WYQ701   0.0000
    10 O3         -40.7630    27.3380   -43.2070 O.2          1 WYQ701   0.0000
    11 C8         -42.0210    25.9580   -45.0970 C.ar         1 WYQ701   0.0000
    12 C7         -41.8780    25.7540   -46.4660 C.ar         1 WYQ701   0.0000
    13 C9         -42.5010    24.9360   -44.2870 C.ar         1 WYQ701   0.0000
    14 C10        -42.8430    23.7100   -44.8470 C.ar         1 WYQ701   0.0000
    15 C11        -42.7070    23.5050   -46.2160 C.ar         1 WYQ701   0.0000
    16 O2         -43.0390    22.3110   -46.7780 O.3          1 WYQ701   0.0000
    17 C12        -43.8750    21.5360   -45.9050 C.3          1 WYQ701   0.0000
    18 C13        -43.1500    20.2450   -45.5180 C.3          1 WYQ701   0.0000
    19 C6         -42.2260    24.5290   -47.0240 C.ar         1 WYQ701   0.0000
    20 C5         -42.1770    24.3550   -48.4020 C.2          1 WYQ701   0.0000
    21 N4         -42.9200    23.3270   -48.9980 N.pl3        1 WYQ701   0.0000
    22 C4         -42.9410    23.2070   -50.3920 C.2          1 WYQ701   0.0000
    23 O1         -43.5970    22.3220   -50.9400 O.2          1 WYQ701   0.0000
    24 N3         -41.4820    25.2160   -49.1600 N.2          1 WYQ701   0.0000
    25 C2         -41.4910    25.1130   -50.4970 C.2          1 WYQ701   0.0000
    26 C3         -42.2110    24.1190   -51.1430 C.2          1 WYQ701   0.0000
    27 N2         -42.0080    24.3030   -52.4440 N.pl3        1 WYQ701   0.0000
    28 C18        -42.5550    23.5510   -53.3950 C.3          1 WYQ701   0.0000
    29 N1         -41.2690    25.2630   -52.6700 N.2          1 WYQ701   0.0000
    30 C1         -40.8990    25.8330   -51.5250 C.2          1 WYQ701   0.0000
    31 C19        -40.0100    27.0670   -51.3710 C.3          1 WYQ701   0.0000
    32 C20        -40.8640    28.3350   -51.4180 C.3          1 WYQ701   0.0000
    33 C21        -40.6270    29.1790   -50.1650 C.3          1 WYQ701   0.0000
    34 H1         -38.5372    25.5707   -48.3291 H            1 WYQ701   0.0000
    35 H2         -38.1685    26.9675   -49.0903 H            1 WYQ701   0.0000
    36 H3         -36.9799    26.0455   -48.4548 H            1 WYQ701   0.0000
    37 H4         -37.8223    26.5101   -46.2459 H            1 WYQ701   0.0000
    38 H5         -37.1730    28.8155   -46.1729 H            1 WYQ701   0.0000
    39 H6         -36.1587    27.9982   -47.1577 H            1 WYQ701   0.0000
    40 H7         -37.3473    28.9202   -47.7932 H            1 WYQ701   0.0000
    41 H8         -41.3439    29.2868   -45.9115 H            1 WYQ701   0.0000
    42 H9         -41.5255    26.4872   -47.0475 H            1 WYQ701   0.0000
    43 H10        -42.6003    25.0820   -43.3027 H            1 WYQ701   0.0000
    44 H11        -43.1875    22.9741   -44.2642 H            1 WYQ701   0.0000
    45 H12        -44.7289    21.3110   -46.3742 H            1 WYQ701   0.0000
    46 H13        -44.0770    22.0648   -45.0807 H            1 WYQ701   0.0000
    47 H14        -43.7322    19.7052   -44.9100 H            1 WYQ701   0.0000
    48 H15        -42.9480    19.7162   -46.3423 H            1 WYQ701   0.0000
    49 H16        -42.2961    20.4701   -45.0488 H            1 WYQ701   0.0000
    50 H17        -43.4324    22.6827   -48.4302 H            1 WYQ701   0.0000
    51 H18        -42.2574    23.8789   -54.2916 H            1 WYQ701   0.0000
    52 H19        -42.2674    22.6008   -53.2752 H            1 WYQ701   0.0000
    53 H20        -43.5515    23.6080   -53.3331 H            1 WYQ701   0.0000
    54 H21        -39.3425    27.0894   -52.1152 H            1 WYQ701   0.0000
    55 H22        -39.5307    27.0227   -50.4945 H            1 WYQ701   0.0000
    56 H23        -41.8299    28.0809   -51.4671 H            1 WYQ701   0.0000
    57 H24        -40.6182    28.8688   -52.2271 H            1 WYQ701   0.0000
    58 H25        -41.1902    30.0042   -50.2075 H            1 WYQ701   0.0000
    59 H26        -40.8738    28.6484   -49.3541 H            1 WYQ701   0.0000
    60 H27        -39.6620    29.4363   -50.1140 H            1 WYQ701   0.0000
@<TRIPOS>BOND
     1    1    2       1
     2    2    3       1
     3    2    4       1
     4    4    5       1
     5    5    6       2
     6    5    7      am
     7    7    8       1
     8    8    9       2
     9    8   10       2
    10    8   11       1
    11   11   12      ar
    12   11   13      ar
    13   12   19      ar
    14   13   14      ar
    15   14   15      ar
    16   15   16       1
    17   15   19      ar
    18   16   17       1
    19   17   18       1
    20   19   20       1
    21   20   21       1
    22   20   24       2
    23   21   22       1
    24   22   23       2
    25   22   26       1
    26   24   25       1
    27   25   26       2
    28   25   30       1
    29   26   27       1
    30   27   28       1
    31   27   29       1
    32   29   30       2
    33   30   31       1
    34   31   32       1
    35   32   33       1
    36    1   34       1
    37    1   35       1
    38    1   36       1
    39    2   37       1
    40    3   38       1
    41    3   39       1
    42    3   40       1
    43    7   41       1
    44   12   42       1
    45   13   43       1
    46   14   44       1
    47   17   45       1
    48   17   46       1
    49   18   47       1
    50   18   48       1
    51   18   49       1
    52   21   50       1
    53   28   51       1
    54   28   52       1
    55   28   53       1
    56   31   54       1
    57   31   55       1
    58   32   56       1
    59   32   57       1
    60   33   58       1
    61   33   59       1
    62   33   60       1
@<TRIPOS>SUBSTRUCTURE
     1 WYQ701      1 GROUP             4 G     WYQ     0 **** WYQ G 701
