@<TRIPOS>MOLECULE
4fh5_UTP_1_ligand
   40    41     1     0     0
SMALL
NO_CHARGES


@<TRIPOS>ATOM
     1 PA         -14.4300     4.3880    -6.0450 P.3          1 UTP401   0.0000
     2 O1A        -14.2680     5.7450    -6.5910 O.co2        1 UTP401   0.0000
     3 O2A        -14.0260     4.1980    -4.6050 O.co2        1 UTP401  -1.0000
     4 O3A        -13.7150     3.3170    -6.9780 O.3          1 UTP401   0.0000
     5 O5'        -15.9430     3.9170    -6.2410 O.3          1 UTP401   0.0000
     6 PB         -12.4520     2.4800    -6.4690 P.3          1 UTP401   0.0000
     7 O1B        -12.8790     1.3950    -5.5710 O.co2        1 UTP401   0.0000
     8 O2B        -11.8150     1.9180    -7.6910 O.co2        1 UTP401  -1.0000
     9 O3B        -11.5550     3.4860    -5.8650 O.3          1 UTP401   0.0000
    10 PG         -10.7000     3.2610    -4.5380 P.3          1 UTP401   0.0000
    11 O1G        -11.7990     3.1320    -3.4990 O.co2        1 UTP401   0.0000
    12 O2G         -9.9580     2.0180    -4.9240 O.co2        1 UTP401  -1.0000
    13 O3G         -9.8660     4.5120    -4.4190 O.co2        1 UTP401  -1.0000
    14 C5'        -16.2710     2.6020    -5.8350 C.3          1 UTP401   0.0000
    15 C4'        -17.4500     2.0880    -6.6440 C.3          1 UTP401   0.0000
    16 O4'        -18.5740     2.9530    -6.5170 O.3          1 UTP401   0.0000
    17 C1'        -19.3300     2.9690    -7.7100 C.3          1 UTP401   0.0000
    18 C2'        -18.6200     1.9960    -8.6460 C.3          1 UTP401   0.0000
    19 O2'        -19.1350     0.6780    -8.4770 O.3          1 UTP401   0.0000
    20 C3'        -17.1990     2.0530    -8.1430 C.3          1 UTP401   0.0000
    21 O3'        -16.4330     0.9470    -8.5480 O.3          1 UTP401   0.0000
    22 N1         -19.3800     4.3530    -8.2570 N.pl3        1 UTP401   0.0000
    23 C6         -18.5570     5.3680    -7.7780 C.2          1 UTP401   0.0000
    24 C2         -20.3830     4.6830    -9.1590 C.2          1 UTP401   0.0000
    25 O2         -21.2210     3.8510    -9.5180 O.2          1 UTP401   0.0000
    26 N3         -20.4540     5.9530    -9.6860 N.pl3        1 UTP401   0.0000
    27 C4         -19.5550     6.9260    -9.3220 C.2          1 UTP401   0.0000
    28 O4         -19.6860     8.0420    -9.8230 O.2          1 UTP401   0.0000
    29 C5         -18.5390     6.6240    -8.4030 C.2          1 UTP401   0.0000
    30 H5'1       -16.5115     2.6052    -4.8644 H            1 UTP401   0.0000
    31 H5'2       -15.4830     2.0039    -5.9812 H            1 UTP401   0.0000
    32 H4'        -17.6973     1.1725    -6.3267 H            1 UTP401   0.0000
    33 H1'        -20.2579     2.6447    -7.5262 H            1 UTP401   0.0000
    34 H2'        -18.6827     2.2936    -9.5986 H            1 UTP401   0.0000
    35 H6         -19.5182     0.3563    -9.3428 H            1 UTP401   0.0000
    36 H3'        -16.7621     2.9022    -8.4394 H            1 UTP401   0.0000
    37 H8         -16.9594     0.3962    -9.1957 H            1 UTP401   0.0000
    38 H9         -17.9743     5.2009    -6.9827 H            1 UTP401   0.0000
    39 H10        -21.1731     6.1712   -10.3458 H            1 UTP401   0.0000
    40 H11        -17.8195     7.2877    -8.1984 H            1 UTP401   0.0000
@<TRIPOS>BOND
     1    1    2      ar
     2    1    3      ar
     3    1    4       1
     4    1    5       1
     5    4    6       1
     6    5   14       1
     7    6    7      ar
     8    6    8      ar
     9    6    9       1
    10    9   10       1
    11   10   11      ar
    12   10   12      ar
    13   10   13      ar
    14   14   15       1
    15   15   16       1
    16   15   20       1
    17   16   17       1
    18   17   18       1
    19   17   22       1
    20   18   19       1
    21   18   20       1
    22   20   21       1
    23   22   23       1
    24   22   24       1
    25   23   29       2
    26   24   25       2
    27   24   26       1
    28   26   27       1
    29   27   28       2
    30   27   29       1
    31   29   40       1
    32   26   39       1
    33   23   38       1
    34   21   37       1
    35   14   30       1
    36   14   31       1
    37   15   32       1
    38   17   33       1
    39   18   34       1
    40   19   35       1
    41   20   36       1
@<TRIPOS>SUBSTRUCTURE
     1 UTP401      1 GROUP             4 A     UTP     0 **** UTP A 401
