@<TRIPOS>MOLECULE
3f10_8HG_1_ligand
   33    35     1     0     0
SMALL
NO_CHARGES


@<TRIPOS>ATOM
     1 O6          25.2690    -8.7780   -12.3040 O.2          1 8HG293   0.0000
     2 C6          26.1450    -9.2320   -11.5880 C.2          1 8HG293   0.0000
     3 N1          26.7600    -8.4270   -10.6170 N.pl3        1 8HG293   0.0000
     4 C2          27.7880    -8.9650    -9.8330 C.2          1 8HG293   0.0000
     5 N2          28.3740    -8.2090    -8.9140 N.pl3        1 8HG293   0.0000
     6 N3          28.1810   -10.2370   -10.0110 N.2          1 8HG293   0.0000
     7 C4          27.6050   -11.0270   -10.9350 C.2          1 8HG293   0.0000
     8 C5          26.5830   -10.5490   -11.7320 C.2          1 8HG293   0.0000
     9 N7          26.2050   -11.5260   -12.5530 N.pl3        1 8HG293   0.0000
    10 C8          26.9800   -12.5730   -12.2690 C.2          1 8HG293   0.0000
    11 O20         26.9130   -13.6580   -12.8510 O.2          1 8HG293   0.0000
    12 N9          27.8350   -12.2880   -11.2960 N.pl3        1 8HG293   0.0000
    13 C1'         28.9060   -13.1760   -10.7830 C.3          1 8HG293   0.0000
    14 O4'         30.0480   -13.1680   -11.6550 O.3          1 8HG293   0.0000
    15 C2'         28.4730   -14.6410   -10.6890 C.3          1 8HG293   0.0000
    16 C3'         29.8550   -15.2830   -10.6250 C.3          1 8HG293   0.0000
    17 O3'         30.4660   -15.0430    -9.3520 O.3          1 8HG293   0.0000
    18 C4'         30.5710   -14.5110   -11.7280 C.3          1 8HG293   0.0000
    19 C5'         30.1870   -15.0670   -13.1030 C.3          1 8HG293   0.0000
    20 O5'         30.7960   -14.2650   -14.1160 O.3          1 8HG293   0.0000
    21 H1          26.4674    -7.4797   -10.4864 H            1 8HG293   0.0000
    22 H2          29.1088    -8.5864    -8.3504 H            1 8HG293   0.0000
    23 H3          28.0810    -7.2617    -8.7848 H            1 8HG293   0.0000
    24 H4          25.4839   -11.4833   -13.2445 H            1 8HG293   0.0000
    25 H1'         29.1856   -12.8597    -9.8765 H            1 8HG293   0.0000
    26 H2'1        27.9586   -14.9341   -11.4949 H            1 8HG293   0.0000
    27 H2'2        27.9349   -14.8226    -9.8659 H            1 8HG293   0.0000
    28 H3'         29.8134   -16.2606   -10.8315 H            1 8HG293   0.0000
    29 H9          31.0754   -15.8030    -9.1262 H            1 8HG293   0.0000
    30 H4'         31.5621   -14.5227   -11.5952 H            1 8HG293   0.0000
    31 H5'1        29.1929   -15.0426   -13.2087 H            1 8HG293   0.0000
    32 H5'2        30.5079   -16.0106   -13.1845 H            1 8HG293   0.0000
    33 H5'         31.6542   -13.8858   -13.7699 H            1 8HG293   0.0000
@<TRIPOS>BOND
     1    1    2       2
     2    2    3       1
     3    2    8       1
     4    3    4       1
     5    4    5       1
     6    4    6       2
     7    6    7       1
     8    7    8       2
     9    7   12       1
    10    8    9       1
    11    9   10       1
    12   10   11       2
    13   10   12       1
    14   12   13       1
    15   13   14       1
    16   13   15       1
    17   14   18       1
    18   15   16       1
    19   16   17       1
    20   16   18       1
    21   18   19       1
    22   19   20       1
    23    3   21       1
    24    5   22       1
    25    5   23       1
    26    9   24       1
    27   13   25       1
    28   15   26       1
    29   15   27       1
    30   16   28       1
    31   17   29       1
    32   18   30       1
    33   19   31       1
    34   19   32       1
    35   20   33       1
@<TRIPOS>SUBSTRUCTURE
     1 8HG293      1 GROUP             4 A     8HG     0 **** 8HG A 293
