@<TRIPOS>MOLECULE
4yi7_BE2_1_ligand
   16    16     1     0     0
SMALL
NO_CHARGES


@<TRIPOS>ATOM
     1 C           22.6680    18.1630   -25.5520 C.2          1 BE2400   0.0000
     2 O1          22.1760    17.4140   -26.4350 O.co2        1 BE2400   0.0000
     3 O2          23.4080    19.1190   -25.8950 O.co2        1 BE2400  -1.0000
     4 C1          22.3830    17.9090   -24.0810 C.ar         1 BE2400   0.0000
     5 C2          21.6990    16.7660   -23.6950 C.ar         1 BE2400   0.0000
     6 C3          21.4450    16.5270   -22.3480 C.ar         1 BE2400   0.0000
     7 N2          21.2540    15.8400   -24.6710 N.pl3        1 BE2400   0.0000
     8 C4          21.8830    17.4360   -21.3910 C.ar         1 BE2400   0.0000
     9 C5          22.5660    18.5810   -21.7760 C.ar         1 BE2400   0.0000
    10 C6          22.8190    18.8160   -23.1270 C.ar         1 BE2400   0.0000
    11 H1          20.9493    15.7045   -22.0691 H            1 BE2400   0.0000
    12 H2          20.7609    15.0164   -24.3907 H            1 BE2400   0.0000
    13 H3          21.4330    16.0102   -25.6400 H            1 BE2400   0.0000
    14 H4          21.7052    17.2640   -20.4221 H            1 BE2400   0.0000
    15 H5          22.8759    19.2357   -21.0865 H            1 BE2400   0.0000
    16 H6          23.3145    19.6380   -23.4077 H            1 BE2400   0.0000
@<TRIPOS>BOND
     1    1    2      ar
     2    1    3      ar
     3    1    4       1
     4    4    5      ar
     5    4   10      ar
     6    5    6      ar
     7    5    7       1
     8    6    8      ar
     9    8    9      ar
    10    9   10      ar
    11   10   16       1
    12    6   11       1
    13    7   12       1
    14    7   13       1
    15    8   14       1
    16    9   15       1
@<TRIPOS>SUBSTRUCTURE
     1 BE2400      1 GROUP             4 A     BE2     0 **** BE2 A 400
