@<TRIPOS>MOLECULE
3ibd_CPZ_1_ligand
   19    20     1     0     0
SMALL
NO_CHARGES


@<TRIPOS>ATOM
     1 C11         24.2440    15.0970    26.1640 C.ar         1 CPZ501   0.0000
     2 C10         25.1790    15.2480    27.1440 C.ar         1 CPZ501   0.0000
     3 C9          25.6100    14.1680    27.8670 C.ar         1 CPZ501   0.0000
     4 C8          25.1330    12.9110    27.5970 C.ar         1 CPZ501   0.0000
     5 C7          24.2130    12.7770    26.6080 C.ar         1 CPZ501   0.0000
     6 C6          23.7420    13.8470    25.8890 C.ar         1 CPZ501   0.0000
     7 C4          22.8110    13.6110    24.9180 C.2          1 CPZ501   0.0000
     8 C2          22.1550    14.5120    24.2160 C.2          1 CPZ501   0.0000
     9 N1          21.4020    13.8720    23.4190 N.2          1 CPZ501   0.0000
    10 C5          21.5250    12.6120    23.5840 C.2          1 CPZ501   0.0000
    11 N3          22.4330    12.4410    24.4880 N.pl3        1 CPZ501   0.0000
    12 CL          26.8150    14.3440    29.0550 Cl           1 CPZ501   0.0000
    13 H1          23.9247    15.8915    25.6475 H            1 CPZ501   0.0000
    14 H2          25.5534    16.1550    27.3366 H            1 CPZ501   0.0000
    15 H3          25.4534    12.1168    28.1133 H            1 CPZ501   0.0000
    16 H4          23.8652    11.8639    26.3952 H            1 CPZ501   0.0000
    17 H5          22.2345    15.5057    24.2953 H            1 CPZ501   0.0000
    18 H6          21.0169    11.8955    23.1060 H            1 CPZ501   0.0000
    19 H7          22.7854    11.5600    24.8037 H            1 CPZ501   0.0000
@<TRIPOS>BOND
     1    1    2      ar
     2    1    6      ar
     3    2    3      ar
     4    3    4      ar
     5    3   12       1
     6    4    5      ar
     7    5    6      ar
     8    6    7       1
     9    7    8       2
    10    7   11       1
    11    8    9       1
    12    9   10       2
    13   10   11       1
    14    1   13       1
    15    2   14       1
    16    4   15       1
    17    5   16       1
    18    8   17       1
    19   10   18       1
    20   11   19       1
@<TRIPOS>SUBSTRUCTURE
     1 CPZ501      1 GROUP             4 A     CPZ     0 **** CPZ A 501
