@<TRIPOS>MOLECULE
4x2q_NAD_2_ligand
   39    41     1     0     0
SMALL
NO_CHARGES


@<TRIPOS>ATOM
     1 PA          51.7650    -0.2550    35.9850 P.3          1 NAD601   0.0000
     2 O1A         51.1490    -0.6360    34.6600 O.co2        1 NAD601   0.0000
     3 O2A         53.2020    -0.6130    36.2830 O.co2        1 NAD601  -1.0000
     4 O5B         50.8610    -0.8570    37.1670 O.3          1 NAD601   0.0000
     5 C5B         49.4830    -1.1670    36.9740 C.3          1 NAD601   0.0000
     6 C4B         49.1810    -2.5450    37.5510 C.3          1 NAD601   0.0000
     7 O4B         49.7810    -3.5680    36.7480 O.3          1 NAD601   0.0000
     8 C3B         49.7230    -2.7050    38.9630 C.3          1 NAD601   0.0000
     9 O3B         48.6710    -3.1720    39.8110 O.3          1 NAD601   0.0000
    10 C2B         50.8210    -3.7450    38.8430 C.3          1 NAD601   0.0000
    11 O2B         50.8440    -4.6360    39.9570 O.3          1 NAD601   0.0000
    12 C1B         50.4770    -4.5020    37.5750 C.3          1 NAD601   0.0000
    13 N9A         51.6850    -5.0500    36.9010 N.pl3        1 NAD601   0.0000
    14 C8A         52.9370    -4.5560    36.9440 C.2          1 NAD601   0.0000
    15 N7A         53.7560    -5.3430    36.2060 N.2          1 NAD601   0.0000
    16 C5A         53.0010    -6.3370    35.6990 C.ar         1 NAD601   0.0000
    17 C6A         53.2720    -7.5080    34.8220 C.ar         1 NAD601   0.0000
    18 N6A         54.5160    -7.7530    34.3560 N.pl3        1 NAD601   0.0000
    19 N1A         52.2540    -8.3180    34.5040 N.ar         1 NAD601   0.0000
    20 C2A         51.0170    -8.0790    34.9670 C.ar         1 NAD601   0.0000
    21 N3A         50.7360    -7.0310    35.7610 N.ar         1 NAD601   0.0000
    22 C4A         51.7000    -6.1490    36.1390 C.ar         1 NAD601   0.0000
    23 O3          51.5780     1.3380    36.1560 O.3          1 NAD601   0.0000
    24 PN          51.9120     2.1230    37.5270 P.3          1 NAD601   0.0000
    25 O1N         51.6060     3.5650    37.1980 O.co2        1 NAD601   0.0000
    26 O2N         50.9630     1.5100    38.5310 O.co2        1 NAD601  -1.0000
    27 O5D         53.3780     1.8550    37.7880 O.co2        1 NAD601  -1.0000
    28 H5B1        49.2753    -1.1634    35.9958 H            1 NAD601   0.0000
    29 H5B2        48.9202    -0.4822    37.4368 H            1 NAD601   0.0000
    30 H4B         48.1905    -2.6817    37.5653 H            1 NAD601   0.0000
    31 H3B         50.0915    -1.8389    39.3007 H            1 NAD601   0.0000
    32 H5          47.9221    -2.5093    39.8089 H            1 NAD601   0.0000
    33 H2B         51.7092    -3.2962    38.7443 H            1 NAD601   0.0000
    34 H7          51.4448    -4.2674    40.6663 H            1 NAD601   0.0000
    35 H1B         49.8614    -5.2563    37.8032 H            1 NAD601   0.0000
    36 H8A         53.2182    -3.7362    37.4429 H            1 NAD601   0.0000
    37 H6A1        54.6827    -8.5441    33.7674 H            1 NAD601   0.0000
    38 H6A2        55.2703    -7.1433    34.5996 H            1 NAD601   0.0000
    39 H2A         50.2780    -8.7027    34.7123 H            1 NAD601   0.0000
@<TRIPOS>BOND
     1    1    2      ar
     2    1    3      ar
     3    1    4       1
     4    1   23       1
     5    4    5       1
     6    5    6       1
     7    6    7       1
     8    6    8       1
     9    7   12       1
    10    8    9       1
    11    8   10       1
    12   10   11       1
    13   10   12       1
    14   12   13       1
    15   13   14       1
    16   13   22       1
    17   14   15       2
    18   15   16       1
    19   16   17      ar
    20   16   22      ar
    21   17   18       1
    22   17   19      ar
    23   19   20      ar
    24   20   21      ar
    25   21   22      ar
    26   23   24       1
    27   24   25      ar
    28   24   26      ar
    29   24   27      ar
    30   20   39       1
    31    5   28       1
    32    5   29       1
    33    6   30       1
    34    8   31       1
    35    9   32       1
    36   10   33       1
    37   11   34       1
    38   12   35       1
    39   14   36       1
    40   18   37       1
    41   18   38       1
@<TRIPOS>SUBSTRUCTURE
     1 NAD601      1 GROUP             4 B     NAD     0 **** NAD B 601
