@<TRIPOS>MOLECULE
3gcm_5GP_2_ligand
   33    35     1     0     0
SMALL
NO_CHARGES


@<TRIPOS>ATOM
     1 O5'        -29.0190   -14.7820    16.3670 O.3          1 5GP551   0.0000
     2 C5'        -28.6920   -16.1540    16.5570 C.3          1 5GP551   0.0000
     3 C4'        -29.4710   -16.7410    17.7270 C.3          1 5GP551   0.0000
     4 O4'        -29.4810   -18.1880    17.6470 O.3          1 5GP551   0.0000
     5 C3'        -28.9280   -16.4330    19.1170 C.3          1 5GP551   0.0000
     6 O3'        -30.0050   -16.3640    20.0480 O.3          1 5GP551   0.0000
     7 C2'        -27.9890   -17.6060    19.4060 C.3          1 5GP551   0.0000
     8 O2'        -27.9840   -17.9840    20.7710 O.3          1 5GP551   0.0000
     9 C1'        -28.5390   -18.7490    18.5470 C.3          1 5GP551   0.0000
    10 N9         -27.5470   -19.4940    17.7570 N.pl3        1 5GP551   0.0000
    11 C8         -27.7580   -20.0230    16.5040 C.2          1 5GP551   0.0000
    12 N7         -26.7270   -20.6450    16.0060 N.2          1 5GP551   0.0000
    13 C5         -25.7580   -20.5300    16.9910 C.2          1 5GP551   0.0000
    14 C6         -24.4240   -21.0150    17.0120 C.2          1 5GP551   0.0000
    15 O6         -23.8310   -21.6580    16.1340 O.2          1 5GP551   0.0000
    16 N1         -23.7620   -20.6890    18.1980 N.2          1 5GP551   0.0000
    17 C2         -24.3260   -19.9800    19.2350 C.2          1 5GP551   0.0000
    18 N2         -23.5440   -19.7560    20.3000 N.pl3        1 5GP551   0.0000
    19 N3         -25.5750   -19.5230    19.2260 N.pl3        1 5GP551   0.0000
    20 C4         -26.2410   -19.8280    18.0780 C.2          1 5GP551   0.0000
    21 H5'        -28.4968   -14.4186    15.5954 H            1 5GP551   0.0000
    22 H5'1       -27.7126   -16.2346    16.7423 H            1 5GP551   0.0000
    23 H5'2       -28.9170   -16.6624    15.7258 H            1 5GP551   0.0000
    24 H4'        -30.4146   -16.4141    17.6756 H            1 5GP551   0.0000
    25 H3'        -28.4185   -15.5726    19.1092 H            1 5GP551   0.0000
    26 H6         -29.6456   -16.1618    20.9590 H            1 5GP551   0.0000
    27 H2'        -27.0604   -17.3777    19.1134 H            1 5GP551   0.0000
    28 H8         -28.6873   -18.6775    20.9274 H            1 5GP551   0.0000
    29 H1'        -29.0165   -19.3931    19.1447 H            1 5GP551   0.0000
    30 H10        -28.6276   -19.9374    16.0177 H            1 5GP551   0.0000
    31 H11        -23.8999   -19.2464    21.0833 H            1 5GP551   0.0000
    32 H12        -22.6045   -20.0985    20.3114 H            1 5GP551   0.0000
    33 H13        -25.9818   -19.0100    19.9819 H            1 5GP551   0.0000
@<TRIPOS>BOND
     1    1    2       1
     2    2    3       1
     3    3    4       1
     4    3    5       1
     5    4    9       1
     6    5    6       1
     7    5    7       1
     8    7    8       1
     9    7    9       1
    10    9   10       1
    11   10   11       1
    12   10   20       1
    13   11   12       2
    14   12   13       1
    15   13   14       1
    16   13   20       2
    17   14   15       2
    18   14   16       1
    19   16   17       2
    20   17   18       1
    21   17   19       1
    22   19   20       1
    23    1   21       1
    24    2   22       1
    25    2   23       1
    26    3   24       1
    27    5   25       1
    28    6   26       1
    29    7   27       1
    30    8   28       1
    31    9   29       1
    32   11   30       1
    33   18   32       1
    34   18   31       1
    35   19   33       1
@<TRIPOS>SUBSTRUCTURE
     1 5GP551      1 GROUP             4 B     5GP     0 **** 5GP B 551
