@<TRIPOS>MOLECULE
3b1j_NAD_1_ligand
   70    74     1     0     0
SMALL
NO_CHARGES


@<TRIPOS>ATOM
     1 PA          -4.4500    26.4960   -17.1900 P.3          1 NAD340   0.0000
     2 O1A         -3.0560    26.9420   -16.9160 O.co2        1 NAD340   0.0000
     3 O2A         -5.2580    27.4900   -17.9810 O.co2        1 NAD340  -1.0000
     4 O5B         -5.2230    26.3340   -15.8720 O.3          1 NAD340   0.0000
     5 C5B         -4.6040    26.2580   -14.5680 C.3          1 NAD340   0.0000
     6 C4B         -5.2550    27.3010   -13.6550 C.3          1 NAD340   0.0000
     7 O4B         -4.9400    26.9890   -12.3030 O.3          1 NAD340   0.0000
     8 C3B         -4.8390    28.7620   -13.8320 C.3          1 NAD340   0.0000
     9 O3B         -5.9550    29.6490   -13.7520 O.3          1 NAD340   0.0000
    10 C2B         -3.9010    29.0300   -12.6880 C.3          1 NAD340   0.0000
    11 O2B         -3.8520    30.4010   -12.2760 O.3          1 NAD340   0.0000
    12 C1B         -4.4910    28.1430   -11.5880 C.3          1 NAD340   0.0000
    13 N9A         -3.5630    27.6760   -10.5570 N.pl3        1 NAD340   0.0000
    14 C8A         -2.2850    27.1960   -10.7040 C.2          1 NAD340   0.0000
    15 N7A         -1.7500    26.8570    -9.5050 N.2          1 NAD340   0.0000
    16 C5A         -2.6990    27.1240    -8.5920 C.ar         1 NAD340   0.0000
    17 C6A         -2.8210    27.0020    -7.1410 C.ar         1 NAD340   0.0000
    18 N6A         -1.7440    26.4970    -6.4420 N.pl3        1 NAD340   0.0000
    19 N1A         -3.9830    27.3940    -6.5510 N.ar         1 NAD340   0.0000
    20 C2A         -5.0730    27.9000    -7.2400 C.ar         1 NAD340   0.0000
    21 N3A         -5.0520    28.0400    -8.5990 N.ar         1 NAD340   0.0000
    22 C4A         -3.9220    27.6730    -9.2820 C.ar         1 NAD340   0.0000
    23 O3          -4.4110    25.0370   -17.7740 O.3          1 NAD340   0.0000
    24 PN          -5.5560    23.9910   -18.1860 P.3          1 NAD340   0.0000
    25 O1N         -6.9290    24.4710   -17.6090 O.co2        1 NAD340   0.0000
    26 O2N         -5.4980    23.8230   -19.6840 O.co2        1 NAD340  -1.0000
    27 O5D         -5.1480    22.6700   -17.5240 O.3          1 NAD340   0.0000
    28 C5D         -5.2680    22.4190   -16.1170 C.3          1 NAD340   0.0000
    29 C4D         -5.2600    20.9150   -15.8470 C.3          1 NAD340   0.0000
    30 O4D         -6.2450    20.2700   -16.6740 O.3          1 NAD340   0.0000
    31 C3D         -3.9650    20.1690   -16.1990 C.3          1 NAD340   0.0000
    32 O3D         -3.6560    19.1320   -15.2860 O.3          1 NAD340   0.0000
    33 C2D         -4.1920    19.6450   -17.6090 C.3          1 NAD340   0.0000
    34 O2D         -3.3350    18.5820   -18.0330 O.3          1 NAD340   0.0000
    35 C1D         -5.6770    19.2920   -17.5680 C.3          1 NAD340   0.0000
    36 N1N         -6.3200    19.2230   -18.8970 N.ar         1 NAD340   1.0000
    37 C2N         -6.1520    20.2230   -19.8400 C.ar         1 NAD340   0.0000
    38 C3N         -6.7820    20.1230   -21.0860 C.ar         1 NAD340   0.0000
    39 C7N         -6.6420    21.1690   -22.1670 C.2          1 NAD340   0.0000
    40 O7N         -6.8277    20.7811   -23.3442 O.2          1 NAD340   0.0000
    41 N7N         -6.3502    22.4560   -21.8615 N.am         1 NAD340   0.0000
    42 C4N         -7.5960    18.9630   -21.3330 C.ar         1 NAD340   0.0000
    43 C5N         -7.7550    17.9560   -20.3640 C.ar         1 NAD340   0.0000
    44 C6N         -7.0940    18.1120   -19.1310 C.ar         1 NAD340   0.0000
    45 H5B1        -3.6250    26.4453   -14.6486 H            1 NAD340   0.0000
    46 H5B2        -4.7381    25.3443   -14.1844 H            1 NAD340   0.0000
    47 H4B         -6.2468    27.2413   -13.7678 H            1 NAD340   0.0000
    48 H3B         -4.3639    28.8826   -14.7036 H            1 NAD340   0.0000
    49 H5          -6.0880    29.9326   -12.8023 H            1 NAD340   0.0000
    50 H2B         -2.9818    28.7134   -12.9221 H            1 NAD340   0.0000
    51 H7          -3.2100    30.4978   -11.5155 H            1 NAD340   0.0000
    52 H1B         -5.2697    28.6030   -11.1614 H            1 NAD340   0.0000
    53 H8A         -1.8111    27.1080   -11.5801 H            1 NAD340   0.0000
    54 H6A1        -1.7940    26.4002    -5.4480 H            1 NAD340   0.0000
    55 H6A2        -0.9134    26.2277    -6.9294 H            1 NAD340   0.0000
    56 H2A         -5.8918    28.1683    -6.7325 H            1 NAD340   0.0000
    57 H5D1        -6.1259    22.8099   -15.7837 H            1 NAD340   0.0000
    58 H5D2        -4.4998    22.8446   -15.6388 H            1 NAD340   0.0000
    59 H4D         -5.4814    20.7528   -14.8854 H            1 NAD340   0.0000
    60 H3D         -3.2086    20.8229   -16.2144 H            1 NAD340   0.0000
    61 H17         -2.6640    19.0159   -15.2367 H            1 NAD340   0.0000
    62 H2D         -4.0740    20.4082   -18.2443 H            1 NAD340   0.0000
    63 H19         -2.7003    18.3512   -17.2955 H            1 NAD340   0.0000
    64 H1D         -5.7668    18.3941   -17.1371 H            1 NAD340   0.0000
    65 H2N         -5.5806    21.0166   -19.6309 H            1 NAD340   0.0000
    66 H7N1        -6.2901    23.1409   -22.5876 H            1 NAD340   0.0000
    67 H7N2        -6.1950    22.7211   -20.9099 H            1 NAD340   0.0000
    68 H4N         -8.0596    18.8704   -22.2142 H            1 NAD340   0.0000
    69 H5N         -8.3214    17.1522   -20.5458 H            1 NAD340   0.0000
    70 H6N         -7.1880    17.4120   -18.4231 H            1 NAD340   0.0000
@<TRIPOS>BOND
     1    1    2      ar
     2    1    3      ar
     3    1    4       1
     4    1   23       1
     5    4    5       1
     6    5    6       1
     7    6    7       1
     8    6    8       1
     9    7   12       1
    10    8    9       1
    11    8   10       1
    12   10   11       1
    13   10   12       1
    14   12   13       1
    15   13   14       1
    16   13   22       1
    17   14   15       2
    18   15   16       1
    19   16   17      ar
    20   16   22      ar
    21   17   18       1
    22   17   19      ar
    23   19   20      ar
    24   20   21      ar
    25   21   22      ar
    26   23   24       1
    27   24   25      ar
    28   24   26      ar
    29   24   27       1
    30   27   28       1
    31   28   29       1
    32   29   30       1
    33   29   31       1
    34   30   35       1
    35   31   32       1
    36   31   33       1
    37   33   34       1
    38   33   35       1
    39   35   36       1
    40   36   37      ar
    41   36   44      ar
    42   37   38      ar
    43   38   39       1
    44   38   42      ar
    45   39   40       2
    46   39   41      am
    47   42   43      ar
    48   43   44      ar
    49   44   70       1
    50    5   45       1
    51    5   46       1
    52    6   47       1
    53    8   48       1
    54    9   49       1
    55   10   50       1
    56   11   51       1
    57   12   52       1
    58   14   53       1
    59   18   54       1
    60   18   55       1
    61   20   56       1
    62   43   69       1
    63   28   57       1
    64   28   58       1
    65   29   59       1
    66   31   60       1
    67   32   61       1
    68   33   62       1
    69   34   63       1
    70   35   64       1
    71   37   65       1
    72   41   66       1
    73   41   67       1
    74   42   68       1
@<TRIPOS>SUBSTRUCTURE
     1 NAD340      1 GROUP             4 A     NAD     0 **** NAD A 340
