@<TRIPOS>MOLECULE
5c7t_APR_1_ligand
   57    60     1     0     0
SMALL
NO_CHARGES


@<TRIPOS>ATOM
     1 N1          18.6490   100.2430    23.1990 N.ar         1 APR201   0.0000
     2 C2          18.0740   101.4420    22.9460 C.ar         1 APR201   0.0000
     3 N3          17.4720   101.7560    21.7760 N.ar         1 APR201   0.0000
     4 C4          17.4070   100.8350    20.7770 C.ar         1 APR201   0.0000
     5 C5          18.0030    99.4880    20.9970 C.ar         1 APR201   0.0000
     6 C6          18.6400    99.2380    22.3140 C.ar         1 APR201   0.0000
     7 N6          19.2010    98.0380    22.6040 N.pl3        1 APR201   0.0000
     8 N7          17.8060    98.7700    19.8570 N.2          1 APR201   0.0000
     9 C8          17.1260    99.5830    18.9890 C.2          1 APR201   0.0000
    10 N9          16.8960   100.8100    19.5360 N.pl3        1 APR201   0.0000
    11 C1'         16.2380   101.9730    18.8810 C.3          1 APR201   0.0000
    12 C2'         16.6370   102.0960    17.3890 C.3          1 APR201   0.0000
    13 O2'         17.6700   103.0700    17.1020 O.3          1 APR201   0.0000
    14 C3'         15.3390   102.4460    16.7010 C.3          1 APR201   0.0000
    15 O3'         15.2950   103.8670    16.4350 O.3          1 APR201   0.0000
    16 O4'         14.8180   101.8680    18.9790 O.3          1 APR201   0.0000
    17 C4'         14.2570   101.9380    17.6780 C.3          1 APR201   0.0000
    18 C5'         13.7350   100.5290    17.4060 C.3          1 APR201   0.0000
    19 O5'         14.2730   100.0470    16.1750 O.3          1 APR201   0.0000
    20 PA          13.8570    98.6210    15.5510 P.3          1 APR201   0.0000
    21 O1A         12.5720    98.7920    14.7790 O.co2        1 APR201   0.0000
    22 O2A         14.0520    97.5820    16.6390 O.co2        1 APR201  -1.0000
    23 O3A         15.0860    98.4990    14.5580 O.3          1 APR201   0.0000
    24 PB          16.2100    97.4680    14.9450 P.3          1 APR201   0.0000
    25 O1B         16.9060    97.8640    16.2400 O.co2        1 APR201   0.0000
    26 O2B         16.9040    97.2710    13.6170 O.co2        1 APR201  -1.0000
    27 O5D         15.4520    96.0950    15.3030 O.3          1 APR201   0.0000
    28 C5D         15.0330    95.1890    14.2850 C.3          1 APR201   0.0000
    29 O4D         16.9290    93.8070    13.8680 O.3          1 APR201   0.0000
    30 O1D         18.9540    92.4510    14.3270 O.3          1 APR201   0.0000
    31 C1D         17.6090    92.7790    14.6410 C.3          1 APR201   0.0000
    32 O2D         18.1760    92.4890    17.0930 O.3          1 APR201   0.0000
    33 C2D         17.4440    93.2910    16.0790 C.3          1 APR201   0.0000
    34 O3D         15.3130    92.1030    15.9340 O.3          1 APR201   0.0000
    35 C3D         15.9070    93.3820    15.9430 C.3          1 APR201   0.0000
    36 C4D         15.6480    93.8230    14.4830 C.3          1 APR201   0.0000
    37 H1          18.0955   102.1359    23.6657 H            1 APR201   0.0000
    38 H2          19.1829    97.3012    21.9281 H            1 APR201   0.0000
    39 H3          19.6328    97.8899    23.4937 H            1 APR201   0.0000
    40 H4          16.8356    99.3110    18.0716 H            1 APR201   0.0000
    41 H1'         16.5259   102.8057    19.3540 H            1 APR201   0.0000
    42 H2'         16.9411   101.2007    17.0636 H            1 APR201   0.0000
    43 H7          18.5668   102.6310    17.1575 H            1 APR201   0.0000
    44 H3'         15.2724   101.9433    15.8391 H            1 APR201   0.0000
    45 H9          16.1355   104.2946    16.7678 H            1 APR201   0.0000
    46 H4'         13.4896   102.5792    17.6833 H            1 APR201   0.0000
    47 H5'1        12.7369   100.5497    17.3473 H            1 APR201   0.0000
    48 H5'2        14.0126    99.9220    18.1506 H            1 APR201   0.0000
    49 H5D1        15.3131    95.5469    13.3942 H            1 APR201   0.0000
    50 H5D2        14.0369    95.1054    14.3124 H            1 APR201   0.0000
    51 H1D         19.5714    93.0296    14.8600 H            1 APR201   0.0000
    52 H16         17.0709    91.9401    14.5597 H            1 APR201   0.0000
    53 H2D         17.6871    92.5271    17.9645 H            1 APR201   0.0000
    54 H18         17.8022    94.2240    16.1127 H            1 APR201   0.0000
    55 H3D         15.8692    91.4733    16.4764 H            1 APR201   0.0000
    56 H20         15.4935    93.9976    16.6139 H            1 APR201   0.0000
    57 H4D         15.0681    93.1406    14.0380 H            1 APR201   0.0000
@<TRIPOS>BOND
     1    1    2      ar
     2    1    6      ar
     3    2    3      ar
     4    3    4      ar
     5    4    5      ar
     6    4   10       1
     7    5    6      ar
     8    5    8       1
     9    6    7       1
    10    8    9       2
    11    9   10       1
    12   10   11       1
    13   11   12       1
    14   11   16       1
    15   12   13       1
    16   12   14       1
    17   14   15       1
    18   14   17       1
    19   16   17       1
    20   17   18       1
    21   18   19       1
    22   19   20       1
    23   20   21      ar
    24   20   22      ar
    25   20   23       1
    26   23   24       1
    27   24   25      ar
    28   24   26      ar
    29   24   27       1
    30   27   28       1
    31   28   36       1
    32   29   31       1
    33   29   36       1
    34   30   31       1
    35   31   33       1
    36   32   33       1
    37   33   35       1
    38   34   35       1
    39   35   36       1
    40    2   37       1
    41    7   38       1
    42    7   39       1
    43    9   40       1
    44   11   41       1
    45   12   42       1
    46   13   43       1
    47   14   44       1
    48   15   45       1
    49   17   46       1
    50   18   47       1
    51   18   48       1
    52   36   57       1
    53   35   56       1
    54   28   49       1
    55   28   50       1
    56   30   51       1
    57   31   52       1
    58   32   53       1
    59   33   54       1
    60   34   55       1
@<TRIPOS>SUBSTRUCTURE
     1 APR201      1 GROUP             4 A     APR     0 **** APR A 201
