@<TRIPOS>MOLECULE
2ddo_ATP_1_ligand
   43    45     1     0     0
SMALL
NO_CHARGES


@<TRIPOS>ATOM
     1 PG          -6.7470     8.5830    46.2380 P.3          1 ATP285   0.0000
     2 O1G         -5.6860     9.0910    45.3220 O.co2        1 ATP285   0.0000
     3 O2G         -6.4380     8.4310    47.6640 O.co2        1 ATP285  -1.0000
     4 O3G         -7.3460     7.3960    45.5730 O.co2        1 ATP285  -1.0000
     5 PB          -8.0820    11.1950    45.3940 P.3          1 ATP285   0.0000
     6 O1B         -8.5410    11.1220    43.9730 O.co2        1 ATP285   0.0000
     7 O2B         -8.7950    12.0790    46.3360 O.co2        1 ATP285  -1.0000
     8 O3B         -7.9660     9.6630    46.0330 O.3          1 ATP285   0.0000
     9 PA          -5.7280    12.7320    45.6370 P.3          1 ATP285   0.0000
    10 O1A         -4.9440    12.8970    44.4100 O.co2        1 ATP285   0.0000
    11 O2A         -6.6670    13.8330    46.0690 O.co2        1 ATP285  -1.0000
    12 O3A         -6.4910    11.3570    45.5380 O.3          1 ATP285   0.0000
    13 O5'         -4.8270    12.5080    46.9180 O.3          1 ATP285   0.0000
    14 C5'         -5.2860    12.4010    48.2540 C.3          1 ATP285   0.0000
    15 C4'         -4.7750    13.6150    49.0610 C.3          1 ATP285   0.0000
    16 O4'         -3.7730    14.4550    48.4740 O.3          1 ATP285   0.0000
    17 C3'         -5.9860    14.6470    49.1950 C.3          1 ATP285   0.0000
    18 O3'         -6.9660    14.2930    49.6610 O.3          1 ATP285   0.0000
    19 C2'         -5.1980    15.7270    49.8890 C.3          1 ATP285   0.0000
    20 O2'         -4.8700    15.3810    51.2380 O.3          1 ATP285   0.0000
    21 C1'         -3.9700    15.8410    48.9390 C.3          1 ATP285   0.0000
    22 N9          -4.1880    16.6890    47.6890 N.pl3        1 ATP285   0.0000
    23 C8          -4.2330    16.2890    46.3600 C.2          1 ATP285   0.0000
    24 N7          -4.4320    17.2320    45.4980 N.2          1 ATP285   0.0000
    25 C5          -4.5490    18.3470    46.2750 C.ar         1 ATP285   0.0000
    26 C6          -4.7560    19.6840    45.9450 C.ar         1 ATP285   0.0000
    27 N6          -4.9040    20.0430    44.6710 N.pl3        1 ATP285   0.0000
    28 N1          -4.8180    20.5940    46.9710 N.ar         1 ATP285   0.0000
    29 C2          -4.6620    20.1990    48.2480 C.ar         1 ATP285   0.0000
    30 N3          -4.4530    18.9410    48.6570 N.ar         1 ATP285   0.0000
    31 C4          -4.3910    18.0540    47.6160 C.ar         1 ATP285   0.0000
    32 H5'1        -4.9374    11.5570    48.6615 H            1 ATP285   0.0000
    33 H5'2        -6.2859    12.3882    48.2648 H            1 ATP285   0.0000
    34 H4'         -4.4797    13.3186    49.9693 H            1 ATP285   0.0000
    35 H3'         -6.1971    14.9780    48.2753 H            1 ATP285   0.0000
    36 H5          -7.4153    15.0616    50.1165 H            1 ATP285   0.0000
    37 H2'         -5.7150    16.5829    49.8764 H            1 ATP285   0.0000
    38 H7          -4.8102    16.2125    51.7903 H            1 ATP285   0.0000
    39 H1'         -3.1664    16.1591    49.4421 H            1 ATP285   0.0000
    40 H9          -4.1189    15.3337    46.0873 H            1 ATP285   0.0000
    41 H10         -5.0525    21.0036    44.4362 H            1 ATP285   0.0000
    42 H11         -4.8666    19.3519    43.9492 H            1 ATP285   0.0000
    43 H12         -4.7060    20.9067    48.9531 H            1 ATP285   0.0000
@<TRIPOS>BOND
     1    1    2      ar
     2    1    3      ar
     3    1    4      ar
     4    1    8       1
     5    5    6      ar
     6    5    7      ar
     7    5    8       1
     8    5   12       1
     9    9   10      ar
    10    9   11      ar
    11    9   12       1
    12    9   13       1
    13   13   14       1
    14   14   15       1
    15   15   16       1
    16   15   17       1
    17   16   21       1
    18   17   18       1
    19   17   19       1
    20   19   20       1
    21   19   21       1
    22   21   22       1
    23   22   23       1
    24   22   31       1
    25   23   24       2
    26   24   25       1
    27   25   26      ar
    28   25   31      ar
    29   26   27       1
    30   26   28      ar
    31   28   29      ar
    32   29   30      ar
    33   30   31      ar
    34   29   43       1
    35   27   42       1
    36   27   41       1
    37   23   40       1
    38   14   32       1
    39   14   33       1
    40   15   34       1
    41   17   35       1
    42   18   36       1
    43   19   37       1
    44   20   38       1
    45   21   39       1
@<TRIPOS>SUBSTRUCTURE
     1 ATP285      1 GROUP             4 A     ATP     0 **** ATP A 285
