@<TRIPOS>MOLECULE
3llt_ANP_1_ligand
   44    46     1     0     0
SMALL
NO_CHARGES


@<TRIPOS>ATOM
     1 PG          52.5840   -33.7640     4.5670 P.3          1 ANP877   0.0000
     2 O1G         51.2870   -34.3070     5.1120 O.co2        1 ANP877   0.0000
     3 O2G         52.5420   -33.5020     3.0800 O.co2        1 ANP877  -1.0000
     4 O3G         53.8080   -34.5320     5.0050 O.co2        1 ANP877  -1.0000
     5 PB          54.1650   -31.2060     5.0240 P.3          1 ANP877   0.0000
     6 O1B         54.6650   -31.5220     3.6360 O.co2        1 ANP877   0.0000
     7 O2B         53.8060   -29.7750     5.3410 O.co2        1 ANP877  -1.0000
     8 N3B         52.7530   -32.1940     5.3280 N.3          1 ANP877   0.0000
     9 PA          55.2500   -32.2150     7.4880 P.3          1 ANP877   0.0000
    10 O1A         54.9880   -31.0880     8.4610 O.co2        1 ANP877   0.0000
    11 O2A         54.3520   -33.4280     7.4700 O.co2        1 ANP877  -1.0000
    12 O3A         55.3850   -31.6090     5.9980 O.3          1 ANP877   0.0000
    13 O5'         56.7460   -32.7610     7.7030 O.3          1 ANP877   0.0000
    14 C5'         57.3710   -33.4600     6.6280 C.3          1 ANP877   0.0000
    15 C4'         58.3870   -34.4620     7.1460 C.3          1 ANP877   0.0000
    16 O4'         59.5000   -33.7710     7.7170 O.3          1 ANP877   0.0000
    17 C3'         57.8380   -35.3590     8.2440 C.3          1 ANP877   0.0000
    18 O3'         57.2600   -36.5560     7.7130 O.3          1 ANP877   0.0000
    19 C2'         59.0450   -35.6260     9.1220 C.3          1 ANP877   0.0000
    20 O2'         59.7580   -36.7710     8.6480 O.3          1 ANP877   0.0000
    21 C1'         59.9130   -34.3890     8.9400 C.3          1 ANP877   0.0000
    22 N9          59.7190   -33.4430    10.0700 N.pl3        1 ANP877   0.0000
    23 C8          58.6950   -32.5780    10.2170 C.2          1 ANP877   0.0000
    24 N7          58.8200   -31.8550    11.3570 N.2          1 ANP877   0.0000
    25 C5          59.9490   -32.2560    11.9660 C.ar         1 ANP877   0.0000
    26 C6          60.6760   -31.9030    13.2120 C.ar         1 ANP877   0.0000
    27 N6          60.2030   -30.9530    14.0530 N.pl3        1 ANP877   0.0000
    28 N1          61.8290   -32.5610    13.4800 N.ar         1 ANP877   0.0000
    29 C2          62.3120   -33.5120    12.6520 C.ar         1 ANP877   0.0000
    30 N3          61.7050   -33.8800    11.5050 N.ar         1 ANP877   0.0000
    31 C4          60.5390   -33.3010    11.1130 C.ar         1 ANP877   0.0000
    32 H3B         52.7193   -32.3492     6.3153 H            1 ANP877   0.0000
    33 H5'1        57.8346   -32.8011     6.0356 H            1 ANP877   0.0000
    34 H5'2        56.6716   -33.9454     6.1034 H            1 ANP877   0.0000
    35 H4'         58.7062   -35.0292     6.3868 H            1 ANP877   0.0000
    36 H3'         57.1482   -34.8599     8.7684 H            1 ANP877   0.0000
    37 H6          56.2947   -36.6024     7.9699 H            1 ANP877   0.0000
    38 H2'         58.7763   -35.7397    10.0785 H            1 ANP877   0.0000
    39 H8          60.5508   -36.9364     9.2347 H            1 ANP877   0.0000
    40 H1'         60.8753   -34.6542     8.8794 H            1 ANP877   0.0000
    41 H10         57.9401   -32.4821     9.5682 H            1 ANP877   0.0000
    42 H11         60.7062   -30.7286    14.8875 H            1 ANP877   0.0000
    43 H12         59.3505   -30.4758    13.8396 H            1 ANP877   0.0000
    44 H13         63.1659   -33.9681    12.9027 H            1 ANP877   0.0000
@<TRIPOS>BOND
     1    1    2      ar
     2    1    3      ar
     3    1    4      ar
     4    1    8       1
     5    5    6      ar
     6    5    7      ar
     7    5    8       1
     8    5   12       1
     9    9   10      ar
    10    9   11      ar
    11    9   12       1
    12    9   13       1
    13   13   14       1
    14   14   15       1
    15   15   16       1
    16   15   17       1
    17   16   21       1
    18   17   18       1
    19   17   19       1
    20   19   20       1
    21   19   21       1
    22   21   22       1
    23   22   23       1
    24   22   31       1
    25   23   24       2
    26   24   25       1
    27   25   26      ar
    28   25   31      ar
    29   26   27       1
    30   26   28      ar
    31   28   29      ar
    32   29   30      ar
    33   30   31      ar
    34   29   44       1
    35   27   43       1
    36   27   42       1
    37    8   32       1
    38   23   41       1
    39   14   33       1
    40   14   34       1
    41   15   35       1
    42   17   36       1
    43   18   37       1
    44   19   38       1
    45   20   39       1
    46   21   40       1
@<TRIPOS>SUBSTRUCTURE
     1 ANP877      1 GROUP             4 A     ANP     0 **** ANP A 877
