@<TRIPOS>MOLECULE
1vjt_NAD_1_ligand
   59    62     1     0     0
SMALL
NO_CHARGES


@<TRIPOS>ATOM
     1 PA          63.4910     3.4770    11.6150 P.3          1 NAD500   0.0000
     2 O1A         62.3030     3.1150    10.8080 O.co2        1 NAD500   0.0000
     3 O2A         64.5370     2.4310    11.5180 O.co2        1 NAD500  -1.0000
     4 O5B         64.0130     4.9290    11.1420 O.3          1 NAD500   0.0000
     5 C5B         65.2960     5.4200    11.4580 C.3          1 NAD500   0.0000
     6 C4B         65.9490     5.8600    10.1600 C.3          1 NAD500   0.0000
     7 O4B         67.0920     6.6460    10.4380 O.3          1 NAD500   0.0000
     8 C3B         66.4110     4.6670     9.3330 C.3          1 NAD500   0.0000
     9 O3B         65.9000     4.7480     8.0240 O.3          1 NAD500   0.0000
    10 C2B         67.9170     4.7810     9.3160 C.3          1 NAD500   0.0000
    11 O2B         68.4400     4.3500     8.0830 O.3          1 NAD500   0.0000
    12 C1B         68.1430     6.2700     9.5720 C.3          1 NAD500   0.0000
    13 N9A         69.4670     6.6220    10.1250 N.pl3        1 NAD500   0.0000
    14 C8A         70.2440     5.8990    10.9930 C.2          1 NAD500   0.0000
    15 N7A         71.3760     6.5940    11.2230 N.2          1 NAD500   0.0000
    16 C5A         71.3380     7.7450    10.5250 C.ar         1 NAD500   0.0000
    17 C6A         72.2420     8.8050    10.4080 C.ar         1 NAD500   0.0000
    18 N6A         73.5170     8.6030    10.7560 N.pl3        1 NAD500   0.0000
    19 N1A         71.9100     9.8790     9.5880 N.ar         1 NAD500   0.0000
    20 C2A         70.7120     9.8830     8.9030 C.ar         1 NAD500   0.0000
    21 N3A         69.8380     8.8160     9.0250 N.ar         1 NAD500   0.0000
    22 C4A         70.1400     7.7710     9.8250 C.ar         1 NAD500   0.0000
    23 O3          63.0820     3.6970    13.1630 O.3          1 NAD500   0.0000
    24 PN          61.7230     4.4390    13.6360 P.3          1 NAD500   0.0000
    25 O1N         60.7550     3.4480    14.1640 O.co2        1 NAD500   0.0000
    26 O2N         61.2790     5.3410    12.5590 O.co2        1 NAD500  -1.0000
    27 O5D         62.3000     5.3480    14.8490 O.3          1 NAD500   0.0000
    28 C5D         62.9430     6.5960    14.6620 C.3          1 NAD500   0.0000
    29 C4D         63.2490     7.2530    16.0090 C.3          1 NAD500   0.0000
    30 O4D         62.0950     7.9110    16.5190 O.3          1 NAD500   0.0000
    31 C3D         63.6800     6.2400    17.0650 C.3          1 NAD500   0.0000
    32 O3D         64.7960     6.7090    17.7860 O.3          1 NAD500   0.0000
    33 C2D         62.4720     6.0840    17.9690 C.3          1 NAD500   0.0000
    34 O2D         62.8480     5.8150    19.3030 O.3          1 NAD500   0.0000
    35 C1D         61.7430     7.4170    17.8080 C.3          1 NAD500   0.0000
    36 N1N         60.2790     7.2530    17.9660 N.4          1 NAD500   1.0000
    37 H5B1        65.8410     4.6998    11.8873 H            1 NAD500   0.0000
    38 H5B2        65.2198     6.1973    12.0824 H            1 NAD500   0.0000
    39 H4B         65.2971     6.3999     9.6275 H            1 NAD500   0.0000
    40 H3B         66.1296     3.8108     9.7662 H            1 NAD500   0.0000
    41 H5          66.2245     5.5889     7.5909 H            1 NAD500   0.0000
    42 H2B         68.3095     4.2421    10.0614 H            1 NAD500   0.0000
    43 H7          68.4937     5.1257     7.4542 H            1 NAD500   0.0000
    44 H1B         68.0254     6.7577     8.7069 H            1 NAD500   0.0000
    45 H8A         70.0113     5.0100    11.3873 H            1 NAD500   0.0000
    46 H6A1        74.1800     9.3477    10.6801 H            1 NAD500   0.0000
    47 H6A2        73.8076     7.7072    11.0922 H            1 NAD500   0.0000
    48 H2A         70.4746    10.6580     8.3174 H            1 NAD500   0.0000
    49 H5D1        62.3452     7.1972    14.1317 H            1 NAD500   0.0000
    50 H5D2        63.7986     6.4533    14.1644 H            1 NAD500   0.0000
    51 H4D         63.9791     7.9250    15.8852 H            1 NAD500   0.0000
    52 H3D         63.8968     5.3656    16.6309 H            1 NAD500   0.0000
    53 H17         65.3476     5.9319    18.0891 H            1 NAD500   0.0000
    54 H2D         61.8931     5.3430    17.6288 H            1 NAD500   0.0000
    55 H19         62.9534     6.6764    19.7998 H            1 NAD500   0.0000
    56 H1D         62.0754     8.0551    18.5025 H            1 NAD500   0.0000
    57 H1N1        60.0795     6.9056    18.8822 H            1 NAD500   0.0000
    58 H1N2        59.8290     8.1370    17.8394 H            1 NAD500   0.0000
    59 H1N3        59.9405     6.6058    17.2830 H            1 NAD500   0.0000
@<TRIPOS>BOND
     1    1    2      ar
     2    1    3      ar
     3    1    4       1
     4    1   23       1
     5    4    5       1
     6    5    6       1
     7    6    7       1
     8    6    8       1
     9    7   12       1
    10    8    9       1
    11    8   10       1
    12   10   11       1
    13   10   12       1
    14   12   13       1
    15   13   14       1
    16   13   22       1
    17   14   15       2
    18   15   16       1
    19   16   17      ar
    20   16   22      ar
    21   17   18       1
    22   17   19      ar
    23   19   20      ar
    24   20   21      ar
    25   21   22      ar
    26   23   24       1
    27   24   25      ar
    28   24   26      ar
    29   24   27       1
    30   27   28       1
    31   28   29       1
    32   29   30       1
    33   29   31       1
    34   30   35       1
    35   31   32       1
    36   31   33       1
    37   33   34       1
    38   33   35       1
    39   35   36       1
    40   36   58       1
    41    5   37       1
    42    5   38       1
    43    6   39       1
    44    8   40       1
    45    9   41       1
    46   10   42       1
    47   11   43       1
    48   12   44       1
    49   14   45       1
    50   18   46       1
    51   18   47       1
    52   20   48       1
    53   36   57       1
    54   28   49       1
    55   28   50       1
    56   29   51       1
    57   31   52       1
    58   32   53       1
    59   33   54       1
    60   34   55       1
    61   35   56       1
    62   36   59       1
@<TRIPOS>SUBSTRUCTURE
     1 NAD500      1 GROUP             4 A     NAD     0 **** NAD A 500
