@<TRIPOS>MOLECULE
4fk1_FAD_4_ligand
   84    89     1     0     0
SMALL
NO_CHARGES


@<TRIPOS>ATOM
     1 PA          30.3700   -10.2180     2.2940 P.3          1 FAD500   0.0000
     2 O1A         31.4520   -10.6390     3.1330 O.co2        1 FAD500   0.0000
     3 O2A         29.0150   -10.5060     2.6800 O.co2        1 FAD500  -1.0000
     4 O5B         30.5030   -10.7520     0.8580 O.3          1 FAD500   0.0000
     5 C5B         31.7200   -10.9920     0.2120 C.3          1 FAD500   0.0000
     6 C4B         31.5000   -12.1580    -0.6970 C.3          1 FAD500   0.0000
     7 O4B         32.5550   -12.2280    -1.6210 O.3          1 FAD500   0.0000
     8 C3B         31.5420   -13.4360     0.0920 C.3          1 FAD500   0.0000
     9 O3B         30.2990   -14.0970     0.0130 O.3          1 FAD500   0.0000
    10 C2B         32.6050   -14.2590    -0.5760 C.3          1 FAD500   0.0000
    11 O2B         32.1230   -15.5600    -0.7570 O.3          1 FAD500   0.0000
    12 C1B         32.7890   -13.5850    -1.9010 C.3          1 FAD500   0.0000
    13 N9A         34.1520   -13.7530    -2.3970 N.pl3        1 FAD500   0.0000
    14 C8A         35.2190   -13.2940    -1.7860 C.2          1 FAD500   0.0000
    15 N7A         36.3100   -13.5770    -2.4730 N.2          1 FAD500   0.0000
    16 C5A         35.9570   -14.2440    -3.5520 C.ar         1 FAD500   0.0000
    17 C6A         36.6440   -14.8390    -4.6960 C.ar         1 FAD500   0.0000
    18 N6A         37.9600   -14.7770    -4.8180 N.pl3        1 FAD500   0.0000
    19 N1A         35.9150   -15.4460    -5.6150 N.ar         1 FAD500   0.0000
    20 C2A         34.5970   -15.5140    -5.5170 C.ar         1 FAD500   0.0000
    21 N3A         33.9080   -14.9970    -4.5140 N.ar         1 FAD500   0.0000
    22 C4A         34.5240   -14.3570    -3.5100 C.ar         1 FAD500   0.0000
    23 N1          26.3840    -7.3800    10.0380 N.2          1 FAD500   0.0000
    24 C2          25.1300    -7.0950    10.3910 C.2          1 FAD500   0.0000
    25 O2          24.5160    -6.2710     9.7510 O.2          1 FAD500   0.0000
    26 N3          24.5100    -7.6510    11.4060 N.pl3        1 FAD500   0.0000
    27 C4          25.0930    -8.5440    12.1580 C.2          1 FAD500   0.0000
    28 O4          24.4860    -9.0370    13.0960 O.2          1 FAD500   0.0000
    29 C4X         26.4770    -8.9240    11.8450 C.2          1 FAD500   0.0000
    30 N5          27.1360    -9.8220    12.5700 N.2          1 FAD500   0.0000
    31 C5X         28.3840   -10.1500    12.2680 C.ar         1 FAD500   0.0000
    32 C6          29.0330   -11.0850    13.0310 C.ar         1 FAD500   0.0000
    33 C7          30.3220   -11.4210    12.7100 C.ar         1 FAD500   0.0000
    34 C7M         31.0730   -12.4270    13.5090 C.3          1 FAD500   0.0000
    35 C8          30.9880   -10.8000    11.5710 C.ar         1 FAD500   0.0000
    36 C8M         32.3890   -11.1920    11.2490 C.3          1 FAD500   0.0000
    37 C9          30.3420    -9.8660    10.8130 C.ar         1 FAD500   0.0000
    38 C9A         29.0560    -9.5200    11.1190 C.ar         1 FAD500   0.0000
    39 N10         28.3940    -8.5720    10.3480 N.pl3        1 FAD500   0.0000
    40 C10         27.0970    -8.2630    10.7060 C.2          1 FAD500   0.0000
    41 C1'         29.0810    -7.9470     9.2370 C.3          1 FAD500   0.0000
    42 C2'         28.4590    -8.2490     7.9040 C.3          1 FAD500   0.0000
    43 O2'         28.6540    -9.6210     7.6880 O.3          1 FAD500   0.0000
    44 C3'         29.1670    -7.4720     6.8160 C.3          1 FAD500   0.0000
    45 O3'         29.0690    -6.0840     7.0750 O.3          1 FAD500   0.0000
    46 C4'         28.6350    -7.7860     5.4280 C.3          1 FAD500   0.0000
    47 O4'         28.6020    -9.1780     5.2640 O.3          1 FAD500   0.0000
    48 C5'         29.5490    -7.2760     4.3510 C.3          1 FAD500   0.0000
    49 O5'         28.8820    -7.2980     3.1110 O.3          1 FAD500   0.0000
    50 P           29.6600    -7.4750     1.7630 P.3          1 FAD500   0.0000
    51 O1P         28.7110    -7.7540     0.7110 O.co2        1 FAD500   0.0000
    52 O2P         30.5330    -6.3420     1.5600 O.co2        1 FAD500  -1.0000
    53 O3P         30.6310    -8.6930     2.0360 O.3          1 FAD500   0.0000
    54 H5B1        32.4299   -11.2068     0.8827 H            1 FAD500   0.0000
    55 H5B2        31.9936   -10.1889    -0.3174 H            1 FAD500   0.0000
    56 H4B         30.6247   -12.0698    -1.1725 H            1 FAD500   0.0000
    57 H3B         31.7843   -13.2539     1.0450 H            1 FAD500   0.0000
    58 H5          30.0941   -14.3085    -0.9427 H            1 FAD500   0.0000
    59 H2B         33.4531   -14.2562    -0.0462 H            1 FAD500   0.0000
    60 H7          32.8247   -16.1166    -1.2018 H            1 FAD500   0.0000
    61 H1B         32.1261   -13.9277    -2.5667 H            1 FAD500   0.0000
    62 H8A         35.2071   -12.7974    -0.9181 H            1 FAD500   0.0000
    63 H6A1        38.4088   -15.1915    -5.6097 H            1 FAD500   0.0000
    64 H6A2        38.5058   -14.3157    -4.1185 H            1 FAD500   0.0000
    65 H2A         34.0937   -15.9830    -6.2427 H            1 FAD500   0.0000
    66 H13         23.5678    -7.3836    11.6078 H            1 FAD500   0.0000
    67 H14         28.5739   -11.5147    13.8086 H            1 FAD500   0.0000
    68 H7M1        31.9901   -12.5393    13.1264 H            1 FAD500   0.0000
    69 H7M2        31.1430   -12.1152    14.4566 H            1 FAD500   0.0000
    70 H7M3        30.5906   -13.3025    13.4809 H            1 FAD500   0.0000
    71 H8M1        32.7020   -10.6822    10.4476 H            1 FAD500   0.0000
    72 H8M2        32.9806   -10.9844    12.0280 H            1 FAD500   0.0000
    73 H8M3        32.4247   -12.1724    11.0552 H            1 FAD500   0.0000
    74 H21         30.8073    -9.4376    10.0384 H            1 FAD500   0.0000
    75 H1'1        30.0267    -8.2717     9.2262 H            1 FAD500   0.0000
    76 H1'2        29.0702    -6.9566     9.3746 H            1 FAD500   0.0000
    77 H2'         27.4833    -8.0301     7.9139 H            1 FAD500   0.0000
    78 H25         27.9052    -9.9805     7.1311 H            1 FAD500   0.0000
    79 H3'         30.1349    -7.7221     6.8388 H            1 FAD500   0.0000
    80 H27         29.8732    -5.6184     6.7056 H            1 FAD500   0.0000
    81 H4'         27.7185    -7.4025     5.3140 H            1 FAD500   0.0000
    82 H29         28.7382    -9.4033     4.2993 H            1 FAD500   0.0000
    83 H5'1        30.3611    -7.8574     4.3017 H            1 FAD500   0.0000
    84 H5'2        29.8229    -6.3382     4.5643 H            1 FAD500   0.0000
@<TRIPOS>BOND
     1    1    2      ar
     2    1    3      ar
     3    1    4       1
     4    1   53       1
     5    4    5       1
     6    5    6       1
     7    6    7       1
     8    6    8       1
     9    7   12       1
    10    8    9       1
    11    8   10       1
    12   10   11       1
    13   10   12       1
    14   12   13       1
    15   13   14       1
    16   13   22       1
    17   14   15       2
    18   15   16       1
    19   16   17      ar
    20   16   22      ar
    21   17   18       1
    22   17   19      ar
    23   19   20      ar
    24   20   21      ar
    25   21   22      ar
    26   23   24       1
    27   23   40       2
    28   24   25       2
    29   24   26       1
    30   26   27       1
    31   27   28       2
    32   27   29       1
    33   29   30       2
    34   29   40       1
    35   30   31       1
    36   31   32      ar
    37   31   38      ar
    38   32   33      ar
    39   33   34       1
    40   33   35      ar
    41   35   36       1
    42   35   37      ar
    43   37   38      ar
    44   38   39       1
    45   39   40       1
    46   39   41       1
    47   41   42       1
    48   42   43       1
    49   42   44       1
    50   44   45       1
    51   44   46       1
    52   46   47       1
    53   46   48       1
    54   48   49       1
    55   49   50       1
    56   50   51      ar
    57   50   52      ar
    58   50   53       1
    59   48   84       1
    60    5   54       1
    61    5   55       1
    62    6   56       1
    63    8   57       1
    64    9   58       1
    65   10   59       1
    66   11   60       1
    67   12   61       1
    68   14   62       1
    69   18   63       1
    70   18   64       1
    71   20   65       1
    72   26   66       1
    73   32   67       1
    74   34   68       1
    75   34   69       1
    76   34   70       1
    77   36   71       1
    78   36   72       1
    79   36   73       1
    80   37   74       1
    81   41   75       1
    82   41   76       1
    83   42   77       1
    84   43   78       1
    85   44   79       1
    86   45   80       1
    87   46   81       1
    88   47   82       1
    89   48   83       1
@<TRIPOS>SUBSTRUCTURE
     1 FAD500      1 GROUP             4 D     FAD     0 **** FAD D 500
