@<TRIPOS>MOLECULE
4aqc_88A_2_ligand
   55    59     1     0     0
SMALL
NO_CHARGES


@<TRIPOS>ATOM
     1 O2          77.8930   107.6730    25.4290 O.2          1 88A2001   0.0000
     2 S           79.2710   107.6810    24.8820 S.o2         1 88A2001   0.0000
     3 O1          80.3860   107.7980    25.8300 O.2          1 88A2001   0.0000
     4 C1          79.4840   106.1270    23.9180 C.3          1 88A2001   0.0000
     5 C21         79.4120   108.9500    23.6250 C.ar         1 88A2001   0.0000
     6 C20         78.3510   109.8170    23.3520 C.ar         1 88A2001   0.0000
     7 C19         78.4970   110.7830    22.3470 C.ar         1 88A2001   0.0000
     8 C22         80.5940   109.0330    22.8850 C.ar         1 88A2001   0.0000
     9 C23         80.7300   109.9920    21.8870 C.ar         1 88A2001   0.0000
    10 C18         79.6880   110.8860    21.5860 C.ar         1 88A2001   0.0000
    11 C2          79.8670   111.8970    20.5330 C.2          1 88A2001   0.0000
    12 C6          78.7370   112.3500    19.7980 C.2          1 88A2001   0.0000
    13 N3          77.4390   112.0770    19.8610 N.2          1 88A2001   0.0000
    14 C7          76.9380   112.8630    18.8940 C.2          1 88A2001   0.0000
    15 N2          77.7550   113.6340    18.2270 N.2          1 88A2001   0.0000
    16 N1          78.9460   113.2960    18.8140 N.pl3        1 88A2001   0.0000
    17 C5          80.1540   113.8140    18.4780 C.2          1 88A2001   0.0000
    18 C4          81.2640   113.3900    19.1540 C.2          1 88A2001   0.0000
    19 C3          81.1110   112.4260    20.1860 C.2          1 88A2001   0.0000
    20 N4          75.5770   112.8710    18.6400 N.pl3        1 88A2001   0.0000
    21 C8          74.5050   112.3360    19.2430 C.ar         1 88A2001   0.0000
    22 C13         74.6030   111.4300    20.3040 C.ar         1 88A2001   0.0000
    23 C12         73.4520   110.9120    20.9030 C.ar         1 88A2001   0.0000
    24 C11         72.1580   111.2980    20.4910 C.ar         1 88A2001   0.0000
    25 C10         72.0720   112.2210    19.4390 C.ar         1 88A2001   0.0000
    26 C9          73.2190   112.7350    18.8210 C.ar         1 88A2001   0.0000
    27 N5          71.0630   110.7710    21.1260 N.pl3        1 88A2001   0.0000
    28 C17         71.1370   110.0970    22.4410 C.3          1 88A2001   0.0000
    29 C16         69.7700   110.0180    23.1640 C.3          1 88A2001   0.0000
    30 O3          69.0920   111.2730    22.9790 O.3          1 88A2001   0.0000
    31 C15         68.7510   111.5150    21.6060 C.3          1 88A2001   0.0000
    32 C14         69.6830   110.7700    20.6140 C.3          1 88A2001   0.0000
    33 H1          80.4062   106.0977    23.5324 H            1 88A2001   0.0000
    34 H2          79.3494   105.3401    24.5202 H            1 88A2001   0.0000
    35 H3          78.8121   106.0991    23.1779 H            1 88A2001   0.0000
    36 H4          77.4970   109.7491    23.8678 H            1 88A2001   0.0000
    37 H5          77.7434   111.4140    22.1627 H            1 88A2001   0.0000
    38 H6          81.3452   108.4004    23.0736 H            1 88A2001   0.0000
    39 H7          81.5862   110.0466    21.3733 H            1 88A2001   0.0000
    40 H8          80.2311   114.4939    17.7488 H            1 88A2001   0.0000
    41 H9          82.1678   113.7521    18.9260 H            1 88A2001   0.0000
    42 H10         81.9226   112.1157    20.6810 H            1 88A2001   0.0000
    43 H11         75.3394   113.3942    17.8216 H            1 88A2001   0.0000
    44 H12         75.5039   111.1508    20.6364 H            1 88A2001   0.0000
    45 H13         73.5475   110.2486    21.6451 H            1 88A2001   0.0000
    46 H14         71.1713   112.5190    19.1228 H            1 88A2001   0.0000
    47 H15         73.1256   113.3918    18.0727 H            1 88A2001   0.0000
    48 H16         71.7749   110.6027    23.0218 H            1 88A2001   0.0000
    49 H17         71.4776   109.1670    22.3027 H            1 88A2001   0.0000
    50 H18         69.9120   109.8503    24.1396 H            1 88A2001   0.0000
    51 H19         69.2231   109.2769    22.7745 H            1 88A2001   0.0000
    52 H20         68.8160   112.4971    21.4291 H            1 88A2001   0.0000
    53 H21         67.8112   111.2100    21.4518 H            1 88A2001   0.0000
    54 H22         69.3690   109.8264    20.5090 H            1 88A2001   0.0000
    55 H23         69.6583   111.2302    19.7265 H            1 88A2001   0.0000
@<TRIPOS>BOND
     1    1    2       2
     2    2    3       2
     3    2    4       1
     4    2    5       1
     5    5    6      ar
     6    5    8      ar
     7    6    7      ar
     8    7   10      ar
     9    8    9      ar
    10    9   10      ar
    11   10   11       1
    12   11   12       1
    13   11   19       2
    14   12   13       2
    15   12   16       1
    16   13   14       1
    17   14   15       2
    18   14   20       1
    19   15   16       1
    20   16   17       1
    21   17   18       2
    22   18   19       1
    23   20   21       1
    24   21   22      ar
    25   21   26      ar
    26   22   23      ar
    27   23   24      ar
    28   24   25      ar
    29   24   27       1
    30   25   26      ar
    31   27   28       1
    32   27   32       1
    33   28   29       1
    34   29   30       1
    35   30   31       1
    36   31   32       1
    37    4   33       1
    38    4   34       1
    39    4   35       1
    40    6   36       1
    41    7   37       1
    42    8   38       1
    43    9   39       1
    44   17   40       1
    45   18   41       1
    46   19   42       1
    47   20   43       1
    48   22   44       1
    49   23   45       1
    50   25   46       1
    51   26   47       1
    52   28   48       1
    53   28   49       1
    54   29   50       1
    55   29   51       1
    56   31   52       1
    57   31   53       1
    58   32   54       1
    59   32   55       1
@<TRIPOS>SUBSTRUCTURE
     1 88A2001     1 GROUP             4 B     88A     0 **** 88A B2001
