@<TRIPOS>MOLECULE
3l8p_0CE_1_ligand
   64    70     1     0     0
SMALL
NO_CHARGES


@<TRIPOS>ATOM
     1 C1          18.5930    73.6800    41.1430 C.ar         1 0CE2207   0.0000
     2 N1          12.4770    75.3710    42.2030 N.2          1 0CE2207   0.0000
     3 O1          16.7930    78.0550    42.0270 O.2          1 0CE2207   0.0000
     4 C2          17.4210    72.8570    41.0900 C.ar         1 0CE2207   0.0000
     5 N2          12.8270    76.6560    42.0250 N.pl3        1 0CE2207   0.0000
     6 O2          23.8280    72.3800    39.0110 O.3          1 0CE2207   0.0000
     7 C3          16.1200    73.4790    41.3140 C.ar         1 0CE2207   0.0000
     8 N3          18.9090    77.3270    41.7420 N.am         1 0CE2207   0.0000
     9 C4          16.0380    74.9230    41.5700 C.ar         1 0CE2207   0.0000
    10 N4          17.7850    71.5150    40.8190 N.pl3        1 0CE2207   0.0000
    11 C5          14.6250    75.5110    41.7880 C.2          1 0CE2207   0.0000
    12 C6          13.4900    74.6340    42.0790 C.2          1 0CE2207   0.0000
    13 C7          14.1050    76.7490    41.7770 C.2          1 0CE2207   0.0000
    14 C8          11.9020    77.7730    42.1030 C.3          1 0CE2207   0.0000
    15 C9          13.6110    73.1450    42.1910 C.3          1 0CE2207   0.0000
    16 C10         14.7820    72.6620    41.2800 C.3          1 0CE2207   0.0000
    17 C11         17.2500    75.6870    41.6030 C.ar         1 0CE2207   0.0000
    18 C12         18.5170    75.0870    41.3970 C.ar         1 0CE2207   0.0000
    19 C13         19.6500    76.1110    41.4810 C.3          1 0CE2207   0.0000
    20 C14         17.5920    77.1530    41.8170 C.2          1 0CE2207   0.0000
    21 C15         17.1830    70.5250    39.8530 C.3          1 0CE2207   0.0000
    22 C16         16.2460    69.4630    40.4940 C.3          1 0CE2207   0.0000
    23 C17         16.4840    71.1790    38.6170 C.3          1 0CE2207   0.0000
    24 C18         19.1590    71.5570    40.7090 C.ar         1 0CE2207   0.0000
    25 C19         19.6940    72.8480    40.8960 C.ar         1 0CE2207   0.0000
    26 C20         21.1020    73.0860    40.8130 C.ar         1 0CE2207   0.0000
    27 C21         21.9800    71.9800    40.5320 C.ar         1 0CE2207   0.0000
    28 C22         23.5040    72.1080    40.4050 C.3          1 0CE2207   0.0000
    29 C23         24.2180    73.1800    41.2910 C.3          1 0CE2207   0.0000
    30 C24         25.7500    73.1220    41.0420 C.3          1 0CE2207   0.0000
    31 C25         26.0430    73.3700    39.5340 C.3          1 0CE2207   0.0000
    32 C26         25.2450    72.3310    38.6880 C.3          1 0CE2207   0.0000
    33 C27         21.4340    70.6870    40.3470 C.ar         1 0CE2207   0.0000
    34 C28         20.0420    70.4520    40.4310 C.ar         1 0CE2207   0.0000
    35 H1          19.3479    78.2183    41.8558 H            1 0CE2207   0.0000
    36 H2          14.6096    77.5957    41.6080 H            1 0CE2207   0.0000
    37 H3          12.3953    78.6266    41.9354 H            1 0CE2207   0.0000
    38 H4          11.1856    77.6612    41.4143 H            1 0CE2207   0.0000
    39 H5          11.4883    77.8003    43.0130 H            1 0CE2207   0.0000
    40 H6          12.7573    72.7159    41.8958 H            1 0CE2207   0.0000
    41 H7          13.7992    72.8942    43.1406 H            1 0CE2207   0.0000
    42 H8          14.9992    71.7229    41.5463 H            1 0CE2207   0.0000
    43 H9          14.4500    72.6727    40.3368 H            1 0CE2207   0.0000
    44 H10         20.2813    75.8990    42.2270 H            1 0CE2207   0.0000
    45 H11         20.1572    76.1681    40.6211 H            1 0CE2207   0.0000
    46 H12         17.9557    70.0103    39.4816 H            1 0CE2207   0.0000
    47 H13         15.8961    68.8541    39.7821 H            1 0CE2207   0.0000
    48 H14         16.7582    68.9294    41.1670 H            1 0CE2207   0.0000
    49 H15         15.4809    69.9224    40.9452 H            1 0CE2207   0.0000
    50 H16         16.1120    70.4626    38.0267 H            1 0CE2207   0.0000
    51 H17         15.7421    71.7725    38.9290 H            1 0CE2207   0.0000
    52 H18         17.1508    71.7202    38.1047 H            1 0CE2207   0.0000
    53 H19         21.4706    74.0057    40.9480 H            1 0CE2207   0.0000
    54 H20         23.8988    71.2186    40.6355 H            1 0CE2207   0.0000
    55 H21         24.0299    72.9940    42.2554 H            1 0CE2207   0.0000
    56 H22         23.8761    74.0894    41.0540 H            1 0CE2207   0.0000
    57 H23         26.0961    72.2213    41.3046 H            1 0CE2207   0.0000
    58 H24         26.2031    73.8257    41.5893 H            1 0CE2207   0.0000
    59 H25         27.0220    73.2637    39.3602 H            1 0CE2207   0.0000
    60 H26         25.7587    74.2957    39.2844 H            1 0CE2207   0.0000
    61 H27         25.3670    72.5361    37.7169 H            1 0CE2207   0.0000
    62 H28         25.5937    71.4139    38.8814 H            1 0CE2207   0.0000
    63 H29         22.0473    69.9215    40.1523 H            1 0CE2207   0.0000
    64 H30         19.6750    69.5312    40.2992 H            1 0CE2207   0.0000
@<TRIPOS>BOND
     1    1    4      ar
     2    1   18      ar
     3    1   25       1
     4    2    5       1
     5    2   12       2
     6    3   20       2
     7    4    7      ar
     8    4   10       1
     9    5   13       1
    10    5   14       1
    11    6   28       1
    12    6   32       1
    13    7    9      ar
    14    7   16       1
    15    8   19       1
    16    8   20      am
    17    9   11       1
    18    9   17      ar
    19   10   21       1
    20   10   24       1
    21   11   12       1
    22   11   13       2
    23   12   15       1
    24   15   16       1
    25   17   18      ar
    26   17   20       1
    27   18   19       1
    28   21   22       1
    29   21   23       1
    30   24   25      ar
    31   24   34      ar
    32   25   26      ar
    33   26   27      ar
    34   27   28       1
    35   27   33      ar
    36   28   29       1
    37   29   30       1
    38   30   31       1
    39   31   32       1
    40   33   34      ar
    41    8   35       1
    42   13   36       1
    43   14   37       1
    44   14   38       1
    45   14   39       1
    46   15   40       1
    47   15   41       1
    48   16   42       1
    49   16   43       1
    50   19   44       1
    51   19   45       1
    52   21   46       1
    53   22   47       1
    54   22   48       1
    55   22   49       1
    56   23   50       1
    57   23   51       1
    58   23   52       1
    59   26   53       1
    60   28   54       1
    61   29   55       1
    62   29   56       1
    63   30   57       1
    64   30   58       1
    65   31   59       1
    66   31   60       1
    67   32   61       1
    68   32   62       1
    69   33   63       1
    70   34   64       1
@<TRIPOS>SUBSTRUCTURE
     1 0CE2207     1 GROUP             4 A     0CE     0 **** 0CE A2207
