@<TRIPOS>MOLECULE
3mjh_GTP_2_ligand
   44    46     1     0     0
SMALL
NO_CHARGES


@<TRIPOS>ATOM
     1 PG          10.7880    24.0340    17.4050 P.3          1 GTP200   0.0000
     2 O1G         11.1000    24.7790    16.1450 O.co2        1 GTP200   0.0000
     3 O2G         12.0010    23.2260    17.8220 O.co2        1 GTP200  -1.0000
     4 O3G          9.6140    23.1080    17.1560 O.co2        1 GTP200  -1.0000
     5 O3B         10.4450    25.2090    18.4790 O.3          1 GTP200   0.0000
     6 PB          10.1830    24.9980    20.0530 P.3          1 GTP200   0.0000
     7 O1B          8.7370    24.6690    20.3150 O.co2        1 GTP200   0.0000
     8 O2B         11.1120    23.9620    20.6270 O.co2        1 GTP200  -1.0000
     9 O3A         10.4060    26.4730    20.6670 O.3          1 GTP200   0.0000
    10 PA          11.6660    26.9320    21.5430 P.3          1 GTP200   0.0000
    11 O1A         11.7640    26.2240    22.8580 O.co2        1 GTP200   0.0000
    12 O2A         12.9550    26.8340    20.7750 O.co2        1 GTP200  -1.0000
    13 O5'         11.3090    28.4820    21.8280 O.3          1 GTP200   0.0000
    14 C5'         11.1020    29.4300    20.7980 C.3          1 GTP200   0.0000
    15 C4'         11.2790    30.8500    21.3590 C.3          1 GTP200   0.0000
    16 O4'         10.2650    31.1050    22.3200 O.3          1 GTP200   0.0000
    17 C3'         12.6260    31.0290    22.0530 C.3          1 GTP200   0.0000
    18 O3'         13.1980    32.2730    21.7240 O.3          1 GTP200   0.0000
    19 C2'         12.2910    31.0300    23.5300 C.3          1 GTP200   0.0000
    20 O2'         13.1230    31.9280    24.2320 O.3          1 GTP200   0.0000
    21 C1'         10.8420    31.4800    23.5480 C.3          1 GTP200   0.0000
    22 N9          10.0680    30.8960    24.6570 N.pl3        1 GTP200   0.0000
    23 C8           9.8760    29.5680    24.9370 C.2          1 GTP200   0.0000
    24 N7           9.0930    29.4850    26.0360 N.2          1 GTP200   0.0000
    25 C5           8.7760    30.7370    26.4550 C.2          1 GTP200   0.0000
    26 C6           8.0190    31.2250    27.5190 C.2          1 GTP200   0.0000
    27 O6           7.4570    30.4670    28.3110 O.2          1 GTP200   0.0000
    28 N1           7.8760    32.5900    27.6760 N.pl3        1 GTP200   0.0000
    29 C2           8.4760    33.4760    26.8050 C.2          1 GTP200   0.0000
    30 N2           8.3150    34.7870    27.0000 N.pl3        1 GTP200   0.0000
    31 N3           9.2280    32.9870    25.7520 N.2          1 GTP200   0.0000
    32 C4           9.3820    31.6400    25.5880 C.2          1 GTP200   0.0000
    33 H5'1        10.1759    29.3291    20.4344 H            1 GTP200   0.0000
    34 H5'2        11.7660    29.2764    20.0662 H            1 GTP200   0.0000
    35 H4'         11.2012    31.5117    20.6133 H            1 GTP200   0.0000
    36 H3'         13.2473    30.2786    21.8275 H            1 GTP200   0.0000
    37 H5          14.0782    32.3686    22.1889 H            1 GTP200   0.0000
    38 H2'         12.3751    30.1079    23.9078 H            1 GTP200   0.0000
    39 H7          13.9451    31.4492    24.5402 H            1 GTP200   0.0000
    40 H1'         10.8150    32.4766    23.6258 H            1 GTP200   0.0000
    41 H9          10.2489    28.7974    24.4202 H            1 GTP200   0.0000
    42 H10          7.3278    32.9423    28.4345 H            1 GTP200   0.0000
    43 H11          8.7437    35.4415    26.3772 H            1 GTP200   0.0000
    44 H12          7.7658    35.1144    27.7689 H            1 GTP200   0.0000
@<TRIPOS>BOND
     1    1    2      ar
     2    1    3      ar
     3    1    4      ar
     4    1    5       1
     5    5    6       1
     6    6    7      ar
     7    6    8      ar
     8    6    9       1
     9    9   10       1
    10   10   11      ar
    11   10   12      ar
    12   10   13       1
    13   13   14       1
    14   14   15       1
    15   15   16       1
    16   15   17       1
    17   16   21       1
    18   17   18       1
    19   17   19       1
    20   19   20       1
    21   19   21       1
    22   21   22       1
    23   22   23       1
    24   22   32       1
    25   23   24       2
    26   24   25       1
    27   25   26       1
    28   25   32       2
    29   26   27       2
    30   26   28       1
    31   28   29       1
    32   29   30       1
    33   29   31       2
    34   31   32       1
    35   30   44       1
    36   30   43       1
    37   28   42       1
    38   23   41       1
    39   14   33       1
    40   14   34       1
    41   15   35       1
    42   17   36       1
    43   18   37       1
    44   19   38       1
    45   20   39       1
    46   21   40       1
@<TRIPOS>SUBSTRUCTURE
     1 GTP200      1 GROUP             4 C     GTP     0 **** GTP C 200
