@<TRIPOS>MOLECULE
2wzm_NA7_1_ligand
   59    62     1     0     0
SMALL
NO_CHARGES


@<TRIPOS>ATOM
     1 PA           9.5840    44.9010    -3.1550 P.3          1 NA71284   0.0000
     2 O1A          8.9740    44.1490    -1.9760 O.co2        1 NA71284   0.0000
     3 O2A         11.0320    45.2990    -3.0320 O.co2        1 NA71284  -1.0000
     4 O5B          9.5900    44.0650    -4.5390 O.3          1 NA71284   0.0000
     5 C5B          8.4280    43.5650    -5.1570 C.3          1 NA71284   0.0000
     6 C4B          8.7870    42.7870    -6.4230 C.3          1 NA71284   0.0000
     7 O4B          8.6950    43.6460    -7.5730 O.3          1 NA71284   0.0000
     8 C3B         10.1880    42.1990    -6.4140 C.3          1 NA71284   0.0000
     9 O3B         10.0800    40.8420    -6.8660 O.3          1 NA71284   0.0000
    10 C2B         10.9760    43.0740    -7.3900 C.3          1 NA71284   0.0000
    11 O2B         11.9330    42.3150    -8.1080 O.3          1 NA71284   0.0000
    12 C1B          9.8910    43.5710    -8.3410 C.3          1 NA71284   0.0000
    13 N9A         10.1500    44.8900    -9.0000 N.pl3        1 NA71284   0.0000
    14 C8A         10.6560    46.0310    -8.4850 C.2          1 NA71284   0.0000
    15 N7A         10.7110    46.9780    -9.4610 N.2          1 NA71284   0.0000
    16 C5A         10.2330    46.4170   -10.6010 C.ar         1 NA71284   0.0000
    17 C6A         10.0410    46.8940   -11.9000 C.ar         1 NA71284   0.0000
    18 N6A         10.3730    48.1730   -12.2560 N.pl3        1 NA71284   0.0000
    19 N1A          9.5190    46.0370   -12.8280 N.ar         1 NA71284   0.0000
    20 C2A          9.1970    44.7650   -12.5060 C.ar         1 NA71284   0.0000
    21 N3A          9.3740    44.3000   -11.2570 N.ar         1 NA71284   0.0000
    22 C4A          9.8870    45.1070   -10.3000 C.ar         1 NA71284   0.0000
    23 O3           8.6640    46.1540    -3.6150 O.3          1 NA71284   0.0000
    24 PN           7.5380    46.9630    -2.7780 P.3          1 NA71284   0.0000
    25 O1N          6.4680    46.0340    -2.2240 O.co2        1 NA71284   0.0000
    26 O2N          7.2030    48.1370    -3.6250 O.co2        1 NA71284  -1.0000
    27 O5D          8.2630    47.4240    -1.4550 O.3          1 NA71284   0.0000
    28 C5D          9.5050    48.0680    -1.5360 C.3          1 NA71284   0.0000
    29 C4D          9.7240    48.2860    -0.0690 C.3          1 NA71284   0.0000
    30 O4D         10.7290    47.4270     0.4660 O.3          1 NA71284   0.0000
    31 C3D         10.2520    49.6890     0.0490 C.3          1 NA71284   0.0000
    32 O3D          9.1350    50.5970    -0.0750 O.3          1 NA71284   0.0000
    33 C2D         11.0080    49.6250     1.3810 C.3          1 NA71284   0.0000
    34 O2D         10.2040    50.0630     2.4930 O.3          1 NA71284   0.0000
    35 C1D         11.3600    48.1440     1.5530 C.3          1 NA71284   0.0000
    36 P2B         13.4130    42.8660    -8.3440 P.3          1 NA71284   0.0000
    37 O1X         13.9560    43.2910    -7.0040 O.co2        1 NA71284   0.0000
    38 O2X         14.1160    41.6880    -8.9600 O.co2        1 NA71284  -1.0000
    39 O3X         13.2610    44.0410    -9.2950 O.co2        1 NA71284  -1.0000
    40 H5B1         7.8293    44.3286    -5.3987 H            1 NA71284   0.0000
    41 H5B2         7.9526    42.9572    -4.5210 H            1 NA71284   0.0000
    42 H4B          8.1310    42.0402    -6.5324 H            1 NA71284   0.0000
    43 H3B         10.5860    42.2392    -5.4975 H            1 NA71284   0.0000
    44 H5          10.9247    40.5774    -7.3313 H            1 NA71284   0.0000
    45 H2B         11.4108    43.8382    -6.9136 H            1 NA71284   0.0000
    46 H1B          9.7619    42.8836    -9.0557 H            1 NA71284   0.0000
    47 H8A         10.9447    46.1599    -7.5363 H            1 NA71284   0.0000
    48 H6A1        10.2237    48.4856   -13.1941 H            1 NA71284   0.0000
    49 H6A2        10.7649    48.7950   -11.5781 H            1 NA71284   0.0000
    50 H2A          8.8211    44.1598   -13.2077 H            1 NA71284   0.0000
    51 H5D1         9.4531    48.9283    -2.0431 H            1 NA71284   0.0000
    52 H5D2        10.2085    47.4842    -1.9412 H            1 NA71284   0.0000
    53 H4D          8.8667    48.1862     0.4361 H            1 NA71284   0.0000
    54 H3D         10.9015    49.8610    -0.6917 H            1 NA71284   0.0000
    55 H16          9.3190    51.4259     0.4532 H            1 NA71284   0.0000
    56 H2D         11.8438    50.1714     1.3268 H            1 NA71284   0.0000
    57 H18         10.7393    50.0029     3.3355 H            1 NA71284   0.0000
    58 H1D1        12.3516    48.0206     1.5152 H            1 NA71284   0.0000
    59 H1D2        11.0156    47.8093     2.4301 H            1 NA71284   0.0000
@<TRIPOS>BOND
     1    1    2      ar
     2    1    3      ar
     3    1    4       1
     4    1   23       1
     5    4    5       1
     6    5    6       1
     7    6    7       1
     8    6    8       1
     9    7   12       1
    10    8    9       1
    11    8   10       1
    12   10   11       1
    13   10   12       1
    14   11   36       1
    15   12   13       1
    16   13   14       1
    17   13   22       1
    18   14   15       2
    19   15   16       1
    20   16   17      ar
    21   16   22      ar
    22   17   18       1
    23   17   19      ar
    24   19   20      ar
    25   20   21      ar
    26   21   22      ar
    27   23   24       1
    28   24   25      ar
    29   24   26      ar
    30   24   27       1
    31   27   28       1
    32   28   29       1
    33   29   30       1
    34   29   31       1
    35   30   35       1
    36   31   32       1
    37   31   33       1
    38   33   34       1
    39   33   35       1
    40   36   37      ar
    41   36   38      ar
    42   36   39      ar
    43   35   58       1
    44    5   40       1
    45    5   41       1
    46    6   42       1
    47    8   43       1
    48    9   44       1
    49   10   45       1
    50   12   46       1
    51   14   47       1
    52   18   48       1
    53   18   49       1
    54   20   50       1
    55   35   59       1
    56   28   51       1
    57   28   52       1
    58   29   53       1
    59   31   54       1
    60   32   55       1
    61   33   56       1
    62   34   57       1
@<TRIPOS>SUBSTRUCTURE
     1 NA71284     1 GROUP             4 A     NA7     0 **** NA7 A1284
