@<TRIPOS>MOLECULE
2psv_MUV_1_ligand
   64    66     1     0     0
SMALL
NO_CHARGES


@<TRIPOS>ATOM
     1 O26         23.6790    25.1250    11.5560 O.2          1 MUV200   0.0000
     2 C25         22.9250    25.7410    10.8070 C.2          1 MUV200   0.0000
     3 N27         22.9470    25.5900     9.4790 N.am         1 MUV200   0.0000
     4 C28         23.8490    24.6740     8.8030 C.3          1 MUV200   0.0000
     5 C24         21.9070    26.6880    11.4080 C.3          1 MUV200   0.0000
     6 C23         22.6170    27.7090    12.2780 C.3          1 MUV200   0.0000
     7 C21         21.5230    28.6390    12.7800 C.2          1 MUV200   0.0000
     8 O22         21.3950    29.7300    12.2460 O.2          1 MUV200   0.0000
     9 N20         20.7320    28.2140    13.7660 N.am         1 MUV200   0.0000
    10 C19         19.6360    28.9880    14.3450 C.3          1 MUV200   0.0000
    11 C32         18.3700    28.1310    14.2540 C.3          1 MUV200   0.0000
    12 C38         18.1040    27.7700    12.7980 C.ar         1 MUV200   0.0000
    13 C37         17.5650    28.7160    11.9310 C.ar         1 MUV200   0.0000
    14 C36         17.3200    28.3920    10.5950 C.ar         1 MUV200   0.0000
    15 C35         17.6200    27.1180    10.1230 C.ar         1 MUV200   0.0000
    16 C34         18.1490    26.1710    10.9900 C.ar         1 MUV200   0.0000
    17 C33         18.3920    26.4970    12.3180 C.ar         1 MUV200   0.0000
    18 C17         20.0070    29.3580    15.7910 C.3          1 MUV200   0.0000
    19 O18         20.0510    28.1880    16.6180 O.3          1 MUV200   0.0000
    20 C16         19.0580    30.4050    16.3950 C.3          1 MUV200   0.0000
    21 N11         19.3530    31.6990    15.7310 N.3          1 MUV200   0.0000
    22 C12         20.0950    32.6440    16.5880 C.3          1 MUV200   0.0000
    23 C13         21.5440    32.1580    16.6800 C.3          1 MUV200   0.0000
    24 C14         22.4220    32.3340    15.4410 C.3          1 MUV200   0.0000
    25 C15         22.6320    33.2310    16.6520 C.3          1 MUV200   0.0000
    26 S8          18.0870    32.3400    14.9480 S.o2         1 MUV200   0.0000
    27 O9          18.6330    33.3030    14.0350 O.2          1 MUV200   0.0000
    28 O10         17.4160    31.2880    14.2590 O.2          1 MUV200   0.0000
    29 C5          16.9610    33.1090    15.9000 C.2          1 MUV200   0.0000
    30 O4          16.7390    34.4600    15.9210 O.2          1 MUV200   0.0000
    31 C3          15.6930    34.6580    16.8190 C.2          1 MUV200   0.0000
    32 C2          15.2890    33.4230    17.3250 C.2          1 MUV200   0.0000
    33 C1          16.1050    32.4180    16.7070 C.2          1 MUV200   0.0000
    34 H1          22.3141    26.1320     8.9262 H            1 MUV200   0.0000
    35 H2          23.6951    24.7222     7.8161 H            1 MUV200   0.0000
    36 H3          24.7949    24.9274     9.0056 H            1 MUV200   0.0000
    37 H4          23.6780    23.7418     9.1219 H            1 MUV200   0.0000
    38 H5          21.2577    26.1698    11.9647 H            1 MUV200   0.0000
    39 H6          21.4161    27.1587    10.6748 H            1 MUV200   0.0000
    40 H7          23.2906    28.2179    11.7420 H            1 MUV200   0.0000
    41 H8          23.0731    27.2585    13.0454 H            1 MUV200   0.0000
    42 H9          20.9010    27.3003    14.1356 H            1 MUV200   0.0000
    43 H10         19.5065    29.8250    13.8133 H            1 MUV200   0.0000
    44 H11         17.5929    28.6449    14.6172 H            1 MUV200   0.0000
    45 H12         18.4949    27.2943    14.7873 H            1 MUV200   0.0000
    46 H13         17.3519    29.6335    12.2669 H            1 MUV200   0.0000
    47 H14         16.9292    29.0751     9.9780 H            1 MUV200   0.0000
    48 H15         17.4555    26.8855     9.1644 H            1 MUV200   0.0000
    49 H16         18.3557    25.2510    10.6570 H            1 MUV200   0.0000
    50 H17         18.7774    25.8103    12.9344 H            1 MUV200   0.0000
    51 H18         20.9253    29.7537    15.7766 H            1 MUV200   0.0000
    52 H19         19.1479    28.0271    17.0162 H            1 MUV200   0.0000
    53 H20         19.2144    30.4816    17.3797 H            1 MUV200   0.0000
    54 H21         18.1075    30.1429    16.2278 H            1 MUV200   0.0000
    55 H22         19.6862    32.6682    17.5003 H            1 MUV200   0.0000
    56 H23         20.0686    33.5595    16.1865 H            1 MUV200   0.0000
    57 H24         21.7166    31.3525    17.2469 H            1 MUV200   0.0000
    58 H25         22.0314    32.7114    14.6014 H            1 MUV200   0.0000
    59 H26         23.1037    31.6401    15.2090 H            1 MUV200   0.0000
    60 H27         23.4516    33.1262    17.2152 H            1 MUV200   0.0000
    61 H28         22.3794    34.1976    16.6076 H            1 MUV200   0.0000
    62 H29         15.2958    35.5430    17.0617 H            1 MUV200   0.0000
    63 H30         14.5637    33.2667    17.9955 H            1 MUV200   0.0000
    64 H31         16.0570    31.4279    16.8388 H            1 MUV200   0.0000
@<TRIPOS>BOND
     1    1    2       2
     2    2    3      am
     3    2    5       1
     4    3    4       1
     5    5    6       1
     6    6    7       1
     7    7    8       2
     8    7    9      am
     9    9   10       1
    10   10   11       1
    11   10   18       1
    12   11   12       1
    13   12   13      ar
    14   12   17      ar
    15   13   14      ar
    16   14   15      ar
    17   15   16      ar
    18   16   17      ar
    19   18   19       1
    20   18   20       1
    21   20   21       1
    22   21   22       1
    23   21   26       1
    24   22   23       1
    25   23   24       1
    26   23   25       1
    27   24   25       1
    28   26   27       2
    29   26   28       2
    30   26   29       1
    31   29   30       1
    32   29   33       2
    33   30   31       1
    34   31   32       2
    35   32   33       1
    36    3   34       1
    37    4   35       1
    38    4   36       1
    39    4   37       1
    40    5   38       1
    41    5   39       1
    42    6   40       1
    43    6   41       1
    44    9   42       1
    45   10   43       1
    46   11   44       1
    47   11   45       1
    48   13   46       1
    49   14   47       1
    50   15   48       1
    51   16   49       1
    52   17   50       1
    53   18   51       1
    54   19   52       1
    55   20   53       1
    56   20   54       1
    57   22   55       1
    58   22   56       1
    59   23   57       1
    60   24   58       1
    61   24   59       1
    62   25   60       1
    63   25   61       1
    64   31   62       1
    65   32   63       1
    66   33   64       1
@<TRIPOS>SUBSTRUCTURE
     1 MUV200      1 GROUP             4 A     MUV     0 **** MUV A 200
