@<TRIPOS>MOLECULE
1hsk_FAD_1_ligand
   84    89     1     0     0
SMALL
NO_CHARGES


@<TRIPOS>ATOM
     1 PA         182.6360   147.4950   166.1010 P.3          1 FAD401   0.0000
     2 O1A        182.9790   146.3480   167.0270 O.co2        1 FAD401   0.0000
     3 O2A        183.2450   147.3900   164.7190 O.co2        1 FAD401  -1.0000
     4 O5B        183.0470   148.8750   166.7770 O.3          1 FAD401   0.0000
     5 C5B        182.7250   150.1020   166.1230 C.3          1 FAD401   0.0000
     6 C4B        182.9630   151.3050   167.0260 C.3          1 FAD401   0.0000
     7 O4B        181.9220   151.3260   168.0460 O.3          1 FAD401   0.0000
     8 C3B        184.2540   151.3310   167.8090 C.3          1 FAD401   0.0000
     9 O3B        184.6710   152.7320   167.8910 O.3          1 FAD401   0.0000
    10 C2B        183.8920   150.7270   169.1780 C.3          1 FAD401   0.0000
    11 O2B        184.6990   151.1690   170.2690 O.3          1 FAD401   0.0000
    12 C1B        182.4460   151.1470   169.3640 C.3          1 FAD401   0.0000
    13 N9A        181.5170   150.2480   170.0250 N.pl3        1 FAD401   0.0000
    14 C8A        181.3520   148.9880   169.5130 C.2          1 FAD401   0.0000
    15 N7A        180.4280   148.4050   170.4750 N.2          1 FAD401   0.0000
    16 C5A        180.1860   149.4370   171.5270 C.ar         1 FAD401   0.0000
    17 C6A        179.4490   149.6250   172.8080 C.ar         1 FAD401   0.0000
    18 N6A        178.6660   148.6760   173.3180 N.pl3        1 FAD401   0.0000
    19 N1A        179.5690   150.8180   173.5120 N.ar         1 FAD401   0.0000
    20 C2A        180.3820   151.7910   173.0150 C.ar         1 FAD401   0.0000
    21 N3A        181.0530   151.7500   171.8960 N.ar         1 FAD401   0.0000
    22 C4A        180.9100   150.5300   171.2140 C.ar         1 FAD401   0.0000
    23 N1         176.8580   150.7920   158.7540 N.2          1 FAD401   0.0000
    24 C2         175.6910   151.4960   158.5570 C.2          1 FAD401   0.0000
    25 O2         175.3740   152.4130   159.2600 O.2          1 FAD401   0.0000
    26 N3         174.8890   151.1440   157.5170 N.pl3        1 FAD401   0.0000
    27 C4         175.1180   150.1030   156.6910 C.2          1 FAD401   0.0000
    28 O4         174.3470   149.7680   155.8020 O.2          1 FAD401   0.0000
    29 C4X        176.4020   149.3070   156.8600 C.2          1 FAD401   0.0000
    30 N5         176.7370   148.2510   156.0310 N.2          1 FAD401   0.0000
    31 C5X        177.9110   147.5560   156.1760 C.ar         1 FAD401   0.0000
    32 C6         178.2260   146.5160   155.2780 C.ar         1 FAD401   0.0000
    33 C7         179.4090   145.7470   155.4500 C.ar         1 FAD401   0.0000
    34 C7M        179.7010   144.6590   154.4430 C.3          1 FAD401   0.0000
    35 C8         180.2700   146.0460   156.5690 C.ar         1 FAD401   0.0000
    36 C8M        181.4780   145.1420   156.6940 C.3          1 FAD401   0.0000
    37 C9         179.9300   147.0990   157.4240 C.ar         1 FAD401   0.0000
    38 C9A        178.7540   147.8880   157.2400 C.ar         1 FAD401   0.0000
    39 N10        178.4030   148.9780   158.1090 N.pl3        1 FAD401   0.0000
    40 C10        177.2420   149.7360   157.9680 C.2          1 FAD401   0.0000
    41 C1'        179.2740   149.4190   159.2550 C.3          1 FAD401   0.0000
    42 C2'        179.0380   148.6020   160.5610 C.3          1 FAD401   0.0000
    43 O2'        178.3270   147.3890   160.3730 O.3          1 FAD401   0.0000
    44 C3'        178.3550   149.4940   161.6370 C.3          1 FAD401   0.0000
    45 O3'        179.1080   150.6490   161.9590 O.3          1 FAD401   0.0000
    46 C4'        177.9850   148.6900   162.9150 C.3          1 FAD401   0.0000
    47 O4'        177.0200   149.3590   163.7050 O.3          1 FAD401   0.0000
    48 C5'        179.2100   148.3020   163.7640 C.3          1 FAD401   0.0000
    49 O5'        178.7960   147.3630   164.7690 O.3          1 FAD401   0.0000
    50 P          179.9740   146.5800   165.3970 P.3          1 FAD401   0.0000
    51 O1P        179.3840   145.7530   166.5220 O.co2        1 FAD401   0.0000
    52 O2P        180.6030   145.7330   164.3040 O.co2        1 FAD401  -1.0000
    53 O3P        181.0900   147.6120   165.9910 O.3          1 FAD401   0.0000
    54 H5B1       181.7614   150.0833   165.8564 H            1 FAD401   0.0000
    55 H5B2       183.2951   150.1926   165.3064 H            1 FAD401   0.0000
    56 H4B        182.8983   152.1395   166.4788 H            1 FAD401   0.0000
    57 H3B        184.9539   150.7804   167.3541 H            1 FAD401   0.0000
    58 H5         183.9631   153.2638   168.3559 H            1 FAD401   0.0000
    59 H2B        183.9386   149.7298   169.1189 H            1 FAD401   0.0000
    60 H7         184.7580   150.4439   170.9551 H            1 FAD401   0.0000
    61 H1B        182.4281   152.0281   169.8367 H            1 FAD401   0.0000
    62 H8A        181.7580   148.5781   168.6962 H            1 FAD401   0.0000
    63 H6A1       178.1851   148.8345   174.1803 H            1 FAD401   0.0000
    64 H6A2       178.5590   147.8050   172.8386 H            1 FAD401   0.0000
    65 H2A        180.4744   152.6220   173.5635 H            1 FAD401   0.0000
    66 H13        174.0715   151.6961   157.3531 H            1 FAD401   0.0000
    67 H14        177.6122   146.3177   154.5138 H            1 FAD401   0.0000
    68 H7M1       180.5573   144.2024   154.6844 H            1 FAD401   0.0000
    69 H7M2       178.9554   143.9926   154.4466 H            1 FAD401   0.0000
    70 H7M3       179.7835   145.0619   153.5315 H            1 FAD401   0.0000
    71 H8M1       182.0181   145.4156   157.4899 H            1 FAD401   0.0000
    72 H8M2       181.1758   144.1953   156.8057 H            1 FAD401   0.0000
    73 H8M3       182.0380   145.2180   155.8690 H            1 FAD401   0.0000
    74 H21        180.5334   147.3075   158.1937 H            1 FAD401   0.0000
    75 H1'1       179.0844   150.3823   159.4450 H            1 FAD401   0.0000
    76 H1'2       180.2310   149.3147   158.9843 H            1 FAD401   0.0000
    77 H2'        179.9399   148.3573   160.9170 H            1 FAD401   0.0000
    78 H25        178.8935   146.6209   160.6715 H            1 FAD401   0.0000
    79 H3'        177.4946   149.8139   161.2403 H            1 FAD401   0.0000
    80 H27        178.5687   151.4661   161.7551 H            1 FAD401   0.0000
    81 H4'        177.5648   147.8363   162.6074 H            1 FAD401   0.0000
    82 H29        176.2053   148.7858   163.7924 H            1 FAD401   0.0000
    83 H5'1       179.5882   149.1179   164.2014 H            1 FAD401   0.0000
    84 H5'2       179.9057   147.8843   163.1795 H            1 FAD401   0.0000
@<TRIPOS>BOND
     1    1    2      ar
     2    1    3      ar
     3    1    4       1
     4    1   53       1
     5    4    5       1
     6    5    6       1
     7    6    7       1
     8    6    8       1
     9    7   12       1
    10    8    9       1
    11    8   10       1
    12   10   11       1
    13   10   12       1
    14   12   13       1
    15   13   14       1
    16   13   22       1
    17   14   15       2
    18   15   16       1
    19   16   17      ar
    20   16   22      ar
    21   17   18       1
    22   17   19      ar
    23   19   20      ar
    24   20   21      ar
    25   21   22      ar
    26   23   24       1
    27   23   40       2
    28   24   25       2
    29   24   26       1
    30   26   27       1
    31   27   28       2
    32   27   29       1
    33   29   30       2
    34   29   40       1
    35   30   31       1
    36   31   32      ar
    37   31   38      ar
    38   32   33      ar
    39   33   34       1
    40   33   35      ar
    41   35   36       1
    42   35   37      ar
    43   37   38      ar
    44   38   39       1
    45   39   40       1
    46   39   41       1
    47   41   42       1
    48   42   43       1
    49   42   44       1
    50   44   45       1
    51   44   46       1
    52   46   47       1
    53   46   48       1
    54   48   49       1
    55   49   50       1
    56   50   51      ar
    57   50   52      ar
    58   50   53       1
    59   48   84       1
    60    5   54       1
    61    5   55       1
    62    6   56       1
    63    8   57       1
    64    9   58       1
    65   10   59       1
    66   11   60       1
    67   12   61       1
    68   14   62       1
    69   18   63       1
    70   18   64       1
    71   20   65       1
    72   26   66       1
    73   32   67       1
    74   34   68       1
    75   34   69       1
    76   34   70       1
    77   36   71       1
    78   36   72       1
    79   36   73       1
    80   37   74       1
    81   41   75       1
    82   41   76       1
    83   42   77       1
    84   43   78       1
    85   44   79       1
    86   45   80       1
    87   46   81       1
    88   47   82       1
    89   48   83       1
@<TRIPOS>SUBSTRUCTURE
     1 FAD401      1 GROUP             4 A     FAD     0 **** FAD A 401
