@<TRIPOS>MOLECULE
4ol0_GTP_1_ligand
   44    46     1     0     0
SMALL
NO_CHARGES


@<TRIPOS>ATOM
     1 PG         -12.3780   -21.5330    31.7440 P.3          1 GTP302   0.0000
     2 O1G        -12.7020   -22.7790    30.9550 O.co2        1 GTP302   0.0000
     3 O2G        -12.4160   -21.8280    33.2220 O.co2        1 GTP302  -1.0000
     4 O3G        -13.3970   -20.4590    31.4450 O.co2        1 GTP302  -1.0000
     5 O3B        -10.9000   -20.9950    31.3850 O.3          1 GTP302   0.0000
     6 PB          -9.9430   -21.6380    30.2570 P.3          1 GTP302   0.0000
     7 O1B         -8.5430   -21.5970    30.8220 O.co2        1 GTP302   0.0000
     8 O2B        -10.3070   -23.0560    29.8830 O.co2        1 GTP302  -1.0000
     9 O3A        -10.0470   -20.6830    28.9640 O.3          1 GTP302   0.0000
    10 PA          -9.8810   -21.3120    27.4860 P.3          1 GTP302   0.0000
    11 O1A         -8.6320   -22.1560    27.4080 O.co2        1 GTP302   0.0000
    12 O2A        -11.0950   -22.1180    27.0830 O.co2        1 GTP302  -1.0000
    13 O5'         -9.7510   -20.0400    26.5160 O.3          1 GTP302   0.0000
    14 C5'         -8.7010   -19.1260    26.7070 C.3          1 GTP302   0.0000
    15 C4'         -8.6510   -18.1440    25.5450 C.3          1 GTP302   0.0000
    16 O4'         -7.4040   -17.4820    25.5940 O.3          1 GTP302   0.0000
    17 C3'         -8.7620   -18.8300    24.1920 C.3          1 GTP302   0.0000
    18 O3'         -9.9490   -18.4470    23.5410 O.3          1 GTP302   0.0000
    19 C2'         -7.5630   -18.3730    23.3920 C.3          1 GTP302   0.0000
    20 O2'         -7.9810   -17.6070    22.2830 O.3          1 GTP302   0.0000
    21 C1'         -6.7060   -17.5780    24.3670 C.3          1 GTP302   0.0000
    22 N9          -5.4340   -18.2780    24.6120 N.pl3        1 GTP302   0.0000
    23 C8          -5.2740   -19.4470    25.3100 C.2          1 GTP302   0.0000
    24 N7          -3.9590   -19.7580    25.3260 N.2          1 GTP302   0.0000
    25 C5          -3.2790   -18.8020    24.6540 C.2          1 GTP302   0.0000
    26 C6          -1.9290   -18.6330    24.3730 C.2          1 GTP302   0.0000
    27 O6          -1.1050   -19.4570    24.7680 O.2          1 GTP302   0.0000
    28 N1          -1.5150   -17.5330    23.6490 N.pl3        1 GTP302   0.0000
    29 C2          -2.4420   -16.6100    23.2090 C.2          1 GTP302   0.0000
    30 N2          -2.0450   -15.5490    22.5120 N.pl3        1 GTP302   0.0000
    31 N3          -3.7810   -16.7840    23.4930 N.2          1 GTP302   0.0000
    32 C4          -4.1940   -17.8620    24.2020 C.2          1 GTP302   0.0000
    33 H5'1        -7.8345   -19.6225    26.7590 H            1 GTP302   0.0000
    34 H5'2        -8.8492   -18.6241    27.5591 H            1 GTP302   0.0000
    35 H4'         -9.3880   -17.4750    25.6415 H            1 GTP302   0.0000
    36 H3'         -8.7391   -19.8230    24.3078 H            1 GTP302   0.0000
    37 H5         -10.6841   -19.0777    23.7898 H            1 GTP302   0.0000
    38 H2'         -7.0516   -19.1708    23.0725 H            1 GTP302   0.0000
    39 H7          -8.8833   -17.9178    21.9843 H            1 GTP302   0.0000
    40 H1'         -6.5291   -16.6643    24.0012 H            1 GTP302   0.0000
    41 H9          -6.0061   -19.9792    25.7351 H            1 GTP302   0.0000
    42 H10         -0.5447   -17.4051    23.4436 H            1 GTP302   0.0000
    43 H11         -2.7167   -14.8803    22.1932 H            1 GTP302   0.0000
    44 H12         -1.0748   -15.4200    22.3068 H            1 GTP302   0.0000
@<TRIPOS>BOND
     1    1    2      ar
     2    1    3      ar
     3    1    4      ar
     4    1    5       1
     5    5    6       1
     6    6    7      ar
     7    6    8      ar
     8    6    9       1
     9    9   10       1
    10   10   11      ar
    11   10   12      ar
    12   10   13       1
    13   13   14       1
    14   14   15       1
    15   15   16       1
    16   15   17       1
    17   16   21       1
    18   17   18       1
    19   17   19       1
    20   19   20       1
    21   19   21       1
    22   21   22       1
    23   22   23       1
    24   22   32       1
    25   23   24       2
    26   24   25       1
    27   25   26       1
    28   25   32       2
    29   26   27       2
    30   26   28       1
    31   28   29       1
    32   29   30       1
    33   29   31       2
    34   31   32       1
    35   30   44       1
    36   30   43       1
    37   28   42       1
    38   23   41       1
    39   14   33       1
    40   14   34       1
    41   15   35       1
    42   17   36       1
    43   18   37       1
    44   19   38       1
    45   20   39       1
    46   21   40       1
@<TRIPOS>SUBSTRUCTURE
     1 GTP302      1 GROUP             4 A     GTP     0 **** GTP A 302
